Program Version,EnergyPlus, Version 25.1.0-1c11a3d85f, YMD=2026.02.24 13:44,
   ** Severe  ** <root>[Branch][Air Loop Main Branch][components][2] - Missing required property 'component_inlet_node_name'.
   ** Severe  ** <root>[Branch][Air Loop Main Branch][components][2] - Missing required property 'component_name'.
   ** Severe  ** <root>[Branch][Air Loop Main Branch][components][2] - Missing required property 'component_object_type'.
   ** Severe  ** <root>[Branch][Air Loop Main Branch][components][2] - Missing required property 'component_outlet_node_name'.
   ** Severe  ** <root>[Branch][Air Loop Main Branch][components][3] - Missing required property 'component_inlet_node_name'.
   ** Severe  ** <root>[Branch][Air Loop Main Branch][components][3] - Missing required property 'component_name'.
   ** Severe  ** <root>[Branch][Air Loop Main Branch][components][3] - Missing required property 'component_object_type'.
   ** Severe  ** <root>[Branch][Air Loop Main Branch][components][3] - Missing required property 'component_outlet_node_name'.
   ** Severe  ** <root>[Branch][Air Loop Main Branch][components][4] - Missing required property 'component_inlet_node_name'.
   ** Severe  ** <root>[Branch][Air Loop Main Branch][components][4] - Missing required property 'component_name'.
   ** Severe  ** <root>[Branch][Air Loop Main Branch][components][4] - Missing required property 'component_object_type'.
   ** Severe  ** <root>[Branch][Air Loop Main Branch][components][4] - Missing required property 'component_outlet_node_name'.
   ** Severe  ** <root>[Branch][Air Loop Main Branch][components][5] - Missing required property 'component_inlet_node_name'.
   ** Severe  ** <root>[Branch][Air Loop Main Branch][components][5] - Missing required property 'component_name'.
   ** Severe  ** <root>[Branch][Air Loop Main Branch][components][5] - Missing required property 'component_object_type'.
   ** Severe  ** <root>[Branch][Air Loop Main Branch][components][5] - Missing required property 'component_outlet_node_name'.
   ** Severe  ** <root>[Branch][Air Loop Main Branch][components][6] - Missing required property 'component_inlet_node_name'.
   ** Severe  ** <root>[Branch][Air Loop Main Branch][components][6] - Missing required property 'component_name'.
   ** Severe  ** <root>[Branch][Air Loop Main Branch][components][6] - Missing required property 'component_object_type'.
   ** Severe  ** <root>[Branch][Air Loop Main Branch][components][6] - Missing required property 'component_outlet_node_name'.
   ** Severe  ** <root>[Branch][Air Loop Main Branch][components][7] - Missing required property 'component_inlet_node_name'.
   ** Severe  ** <root>[Branch][Air Loop Main Branch][components][7] - Missing required property 'component_name'.
   ** Severe  ** <root>[Branch][Air Loop Main Branch][components][7] - Missing required property 'component_object_type'.
   ** Severe  ** <root>[Branch][Air Loop Main Branch][components][7] - Missing required property 'component_outlet_node_name'.
   ** Severe  ** <root>[Branch][Air Loop Main Branch][components][8] - Missing required property 'component_inlet_node_name'.
   ** Severe  ** <root>[Branch][Air Loop Main Branch][components][8] - Missing required property 'component_name'.
   ** Severe  ** <root>[Branch][Air Loop Main Branch][components][8] - Missing required property 'component_object_type'.
   ** Severe  ** <root>[Branch][Air Loop Main Branch][components][8] - Missing required property 'component_outlet_node_name'.
   ** Severe  ** <root>[Branch][Air Loop Main Branch][components][9] - Missing required property 'component_inlet_node_name'.
   ** Severe  ** <root>[Branch][Air Loop Main Branch][components][9] - Missing required property 'component_name'.
   ** Severe  ** <root>[Branch][Air Loop Main Branch][components][9] - Missing required property 'component_object_type'.
   ** Severe  ** <root>[Branch][Air Loop Main Branch][components][9] - Missing required property 'component_outlet_node_name'.
   ** Severe  ** <root>[Branch][Air Loop Main Branch][components][10] - Missing required property 'component_inlet_node_name'.
   ** Severe  ** <root>[Branch][Air Loop Main Branch][components][10] - Missing required property 'component_name'.
   ** Severe  ** <root>[Branch][Air Loop Main Branch][components][10] - Missing required property 'component_object_type'.
   ** Severe  ** <root>[Branch][Air Loop Main Branch][components][10] - Missing required property 'component_outlet_node_name'.
   ** Severe  ** <root>[BranchList][Air Loop Branches][branches][1] - Missing required property 'branch_name'.
   ** Severe  ** <root>[BranchList][Air Loop Branches][branches][2] - Missing required property 'branch_name'.
   ** Severe  ** <root>[BranchList][Air Loop Branches][branches][3] - Missing required property 'branch_name'.
   ** Severe  ** <root>[BranchList][Air Loop Branches][branches][4] - Missing required property 'branch_name'.
   ** Severe  ** <root>[BranchList][Air Loop Branches][branches][5] - Missing required property 'branch_name'.
   ** Severe  ** <root>[BranchList][Air Loop Branches][branches][6] - Missing required property 'branch_name'.
   ** Severe  ** <root>[BranchList][Air Loop Branches][branches][7] - Missing required property 'branch_name'.
   ** Severe  ** <root>[BranchList][Air Loop Branches][branches][8] - Missing required property 'branch_name'.
   ** Severe  ** <root>[BranchList][Air Loop Branches][branches][9] - Missing required property 'branch_name'.
   ** Severe  ** <root>[BranchList][Air Loop Branches][branches][10] - Missing required property 'branch_name'.
   ** Severe  ** <root>[BranchList][Air Loop Branches][branches][11] - Missing required property 'branch_name'.
   ** Severe  ** <root>[BranchList][Air Loop Branches][branches][12] - Missing required property 'branch_name'.
   ** Severe  ** <root>[BranchList][Air Loop Branches][branches][13] - Missing required property 'branch_name'.
   ** Severe  ** <root>[BranchList][Air Loop Branches][branches][14] - Missing required property 'branch_name'.
   ** Severe  ** <root>[BranchList][Air Loop Branches][branches][15] - Missing required property 'branch_name'.
   ** Severe  ** <root>[BranchList][Air Loop Branches][branches][16] - Missing required property 'branch_name'.
   ** Severe  ** <root>[BranchList][Air Loop Branches][branches][17] - Missing required property 'branch_name'.
   ** Severe  ** <root>[BranchList][Air Loop Branches][branches][18] - Missing required property 'branch_name'.
   ** Severe  ** <root>[BranchList][Air Loop Branches][branches][19] - Missing required property 'branch_name'.
   ** Severe  ** <root>[BranchList][Air Loop Branches][branches][20] - Missing required property 'branch_name'.
   ** Severe  ** <root>[BranchList][Air Loop Branches][branches][21] - Missing required property 'branch_name'.
   ** Severe  ** <root>[BranchList][Air Loop Branches][branches][22] - Missing required property 'branch_name'.
   ** Severe  ** <root>[BranchList][Air Loop Branches][branches][23] - Missing required property 'branch_name'.
   ** Severe  ** <root>[BranchList][Air Loop Branches][branches][24] - Missing required property 'branch_name'.
   ** Severe  ** <root>[BranchList][Air Loop Branches][branches][25] - Missing required property 'branch_name'.
   ** Severe  ** <root>[BranchList][Air Loop Branches][branches][26] - Missing required property 'branch_name'.
   ** Severe  ** <root>[BranchList][Air Loop Branches][branches][27] - Missing required property 'branch_name'.
   ** Severe  ** <root>[BranchList][Air Loop Branches][branches][28] - Missing required property 'branch_name'.
   ** Severe  ** <root>[BranchList][Air Loop Branches][branches][29] - Missing required property 'branch_name'.
   ** Severe  ** <root>[BranchList][Air Loop Branches][branches][30] - Missing required property 'branch_name'.
   ** Severe  ** <root>[BranchList][Air Loop Branches][branches][31] - Missing required property 'branch_name'.
   ** Severe  ** <root>[BranchList][Air Loop Branches][branches][32] - Missing required property 'branch_name'.
   ** Severe  ** <root>[BranchList][Air Loop Branches][branches][33] - Missing required property 'branch_name'.
   ** Severe  ** <root>[BranchList][Air Loop Branches][branches][34] - Missing required property 'branch_name'.
   ** Severe  ** <root>[BranchList][Air Loop Branches][branches][35] - Missing required property 'branch_name'.
   ** Severe  ** <root>[BranchList][Air Loop Branches][branches][36] - Missing required property 'branch_name'.
   ** Severe  ** <root>[BranchList][Air Loop Branches][branches][37] - Missing required property 'branch_name'.
   ** Severe  ** <root>[BranchList][Air Loop Branches][branches][38] - Missing required property 'branch_name'.
   ** Severe  ** <root>[BranchList][Air Loop Branches][branches][39] - Missing required property 'branch_name'.
   ** Severe  ** <root>[BranchList][Air Loop Branches][branches][40] - Missing required property 'branch_name'.
   ** Severe  ** <root>[BranchList][Air Loop Branches][branches][41] - Missing required property 'branch_name'.
   ** Severe  ** <root>[BranchList][Air Loop Branches][branches][42] - Missing required property 'branch_name'.
   ** Severe  ** <root>[BranchList][Air Loop Branches][branches][43] - Missing required property 'branch_name'.
   ** Severe  ** <root>[BranchList][Air Loop Branches][branches][44] - Missing required property 'branch_name'.
   ** Severe  ** <root>[BranchList][Air Loop Branches][branches][45] - Missing required property 'branch_name'.
   ** Severe  ** <root>[BranchList][Air Loop Branches][branches][46] - Missing required property 'branch_name'.
   ** Severe  ** <root>[BranchList][Air Loop Branches][branches][47] - Missing required property 'branch_name'.
   ** Severe  ** <root>[BranchList][Air Loop Branches][branches][48] - Missing required property 'branch_name'.
   ** Severe  ** <root>[BranchList][Air Loop Branches][branches][49] - Missing required property 'branch_name'.
   ** Severe  ** <root>[BranchList][Air Loop Branches][branches][50] - Missing required property 'branch_name'.
   ** Severe  ** <root>[BranchList][Air Loop Branches][branches][51] - Missing required property 'branch_name'.
   ** Severe  ** <root>[BranchList][Air Loop Branches][branches][52] - Missing required property 'branch_name'.
   ** Severe  ** <root>[BranchList][Air Loop Branches][branches][53] - Missing required property 'branch_name'.
   ** Severe  ** <root>[BranchList][Air Loop Branches][branches][54] - Missing required property 'branch_name'.
   ** Severe  ** <root>[BranchList][Air Loop Branches][branches][55] - Missing required property 'branch_name'.
   ** Severe  ** <root>[BranchList][Air Loop Branches][branches][56] - Missing required property 'branch_name'.
   ** Severe  ** <root>[BranchList][Air Loop Branches][branches][57] - Missing required property 'branch_name'.
   ** Severe  ** <root>[BranchList][Air Loop Branches][branches][58] - Missing required property 'branch_name'.
   ** Severe  ** <root>[BranchList][Air Loop Branches][branches][59] - Missing required property 'branch_name'.
   ** Severe  ** <root>[BranchList][Air Loop Branches][branches][60] - Missing required property 'branch_name'.
   ** Severe  ** <root>[BranchList][Air Loop Branches][branches][61] - Missing required property 'branch_name'.
   ** Severe  ** <root>[BranchList][Air Loop Branches][branches][62] - Missing required property 'branch_name'.
   ** Severe  ** <root>[BranchList][Air Loop Branches][branches][63] - Missing required property 'branch_name'.
   ** Severe  ** <root>[BranchList][Air Loop Branches][branches][64] - Missing required property 'branch_name'.
   ** Severe  ** <root>[BranchList][Air Loop Branches][branches][65] - Missing required property 'branch_name'.
   ** Severe  ** <root>[BranchList][Air Loop Branches][branches][66] - Missing required property 'branch_name'.
   ** Severe  ** <root>[BranchList][Air Loop Branches][branches][67] - Missing required property 'branch_name'.
   ** Severe  ** <root>[BranchList][Air Loop Branches][branches][68] - Missing required property 'branch_name'.
   ** Severe  ** <root>[BranchList][Air Loop Branches][branches][69] - Missing required property 'branch_name'.
   ** Severe  ** <root>[BranchList][Air Loop Branches][branches][70] - Missing required property 'branch_name'.
   ** Severe  ** <root>[BranchList][Air Loop Branches][branches][71] - Missing required property 'branch_name'.
   ** Severe  ** <root>[BranchList][Air Loop Branches][branches][72] - Missing required property 'branch_name'.
   ** Severe  ** <root>[BranchList][Air Loop Branches][branches][73] - Missing required property 'branch_name'.
   ** Severe  ** <root>[BranchList][Air Loop Branches][branches][74] - Missing required property 'branch_name'.
   ** Severe  ** <root>[BranchList][Air Loop Branches][branches][75] - Missing required property 'branch_name'.
   ** Severe  ** <root>[BranchList][Air Loop Branches][branches][76] - Missing required property 'branch_name'.
   ** Severe  ** <root>[BranchList][Air Loop Branches][branches][77] - Missing required property 'branch_name'.
   ** Severe  ** <root>[BranchList][Air Loop Branches][branches][78] - Missing required property 'branch_name'.
   ** Severe  ** <root>[BranchList][Air Loop Branches][branches][79] - Missing required property 'branch_name'.
   ** Severe  ** <root>[BranchList][Air Loop Branches][branches][80] - Missing required property 'branch_name'.
   ** Severe  ** <root>[BranchList][Air Loop Branches][branches][81] - Missing required property 'branch_name'.
   ** Severe  ** <root>[BranchList][Air Loop Branches][branches][82] - Missing required property 'branch_name'.
   ** Severe  ** <root>[BranchList][Air Loop Branches][branches][83] - Missing required property 'branch_name'.
   ** Severe  ** <root>[BranchList][Air Loop Branches][branches][84] - Missing required property 'branch_name'.
   ** Severe  ** <root>[BranchList][Air Loop Branches][branches][85] - Missing required property 'branch_name'.
   ** Severe  ** <root>[BranchList][Air Loop Branches][branches][86] - Missing required property 'branch_name'.
   ** Severe  ** <root>[BranchList][Air Loop Branches][branches][87] - Missing required property 'branch_name'.
   ** Severe  ** <root>[BranchList][Air Loop Branches][branches][88] - Missing required property 'branch_name'.
   ** Severe  ** <root>[BranchList][Air Loop Branches][branches][89] - Missing required property 'branch_name'.
   ** Severe  ** <root>[BranchList][Air Loop Branches][branches][90] - Missing required property 'branch_name'.
   ** Severe  ** <root>[BranchList][Air Loop Branches][branches][91] - Missing required property 'branch_name'.
   ** Severe  ** <root>[BranchList][Air Loop Branches][branches][92] - Missing required property 'branch_name'.
   ** Severe  ** <root>[BranchList][Air Loop Branches][branches][93] - Missing required property 'branch_name'.
   ** Severe  ** <root>[BranchList][Air Loop Branches][branches][94] - Missing required property 'branch_name'.
   ** Severe  ** <root>[BranchList][Air Loop Branches][branches][95] - Missing required property 'branch_name'.
   ** Severe  ** <root>[BranchList][Air Loop Branches][branches][96] - Missing required property 'branch_name'.
   ** Severe  ** <root>[BranchList][Air Loop Branches][branches][97] - Missing required property 'branch_name'.
   ** Severe  ** <root>[BranchList][Air Loop Branches][branches][98] - Missing required property 'branch_name'.
   ** Severe  ** <root>[BranchList][Air Loop Branches][branches][99] - Missing required property 'branch_name'.
   ** Severe  ** <root>[BranchList][Air Loop Branches][branches][100] - Missing required property 'branch_name'.
   ** Severe  ** <root>[BranchList][Air Loop Branches][branches][101] - Missing required property 'branch_name'.
   ** Severe  ** <root>[BranchList][Air Loop Branches][branches][102] - Missing required property 'branch_name'.
   ** Severe  ** <root>[BranchList][Air Loop Branches][branches][103] - Missing required property 'branch_name'.
   ** Severe  ** <root>[BranchList][Air Loop Branches][branches][104] - Missing required property 'branch_name'.
   ** Severe  ** <root>[BranchList][Air Loop Branches][branches][105] - Missing required property 'branch_name'.
   ** Severe  ** <root>[BranchList][Air Loop Branches][branches][106] - Missing required property 'branch_name'.
   ** Severe  ** <root>[BranchList][Air Loop Branches][branches][107] - Missing required property 'branch_name'.
   ** Severe  ** <root>[BranchList][Air Loop Branches][branches][108] - Missing required property 'branch_name'.
   ** Severe  ** <root>[BranchList][Air Loop Branches][branches][109] - Missing required property 'branch_name'.
   ** Severe  ** <root>[BranchList][Air Loop Branches][branches][110] - Missing required property 'branch_name'.
   ** Severe  ** <root>[BranchList][Air Loop Branches][branches][111] - Missing required property 'branch_name'.
   ** Severe  ** <root>[BranchList][Air Loop Branches][branches][112] - Missing required property 'branch_name'.
   ** Severe  ** <root>[BranchList][Air Loop Branches][branches][113] - Missing required property 'branch_name'.
   ** Severe  ** <root>[BranchList][Air Loop Branches][branches][114] - Missing required property 'branch_name'.
   ** Severe  ** <root>[BranchList][Air Loop Branches][branches][115] - Missing required property 'branch_name'.
   ** Severe  ** <root>[BranchList][Air Loop Branches][branches][116] - Missing required property 'branch_name'.
   ** Severe  ** <root>[BranchList][Air Loop Branches][branches][117] - Missing required property 'branch_name'.
   ** Severe  ** <root>[BranchList][Air Loop Branches][branches][118] - Missing required property 'branch_name'.
   ** Severe  ** <root>[BranchList][Air Loop Branches][branches][119] - Missing required property 'branch_name'.
   ** Severe  ** <root>[BranchList][Air Loop Branches][branches][120] - Missing required property 'branch_name'.
   ** Severe  ** <root>[BranchList][Air Loop Branches][branches][121] - Missing required property 'branch_name'.
   ** Severe  ** <root>[BranchList][Air Loop Branches][branches][122] - Missing required property 'branch_name'.
   ** Severe  ** <root>[BranchList][Air Loop Branches][branches][123] - Missing required property 'branch_name'.
   ** Severe  ** <root>[BranchList][Air Loop Branches][branches][124] - Missing required property 'branch_name'.
   ** Severe  ** <root>[BranchList][Air Loop Branches][branches][125] - Missing required property 'branch_name'.
   ** Severe  ** <root>[BranchList][Air Loop Branches][branches][126] - Missing required property 'branch_name'.
   ** Severe  ** <root>[BranchList][Air Loop Branches][branches][127] - Missing required property 'branch_name'.
   ** Severe  ** <root>[BranchList][Air Loop Branches][branches][128] - Missing required property 'branch_name'.
   ** Severe  ** <root>[BranchList][Air Loop Branches][branches][129] - Missing required property 'branch_name'.
   ** Severe  ** <root>[BranchList][Air Loop Branches][branches][130] - Missing required property 'branch_name'.
   ** Severe  ** <root>[BranchList][Air Loop Branches][branches][131] - Missing required property 'branch_name'.
   ** Severe  ** <root>[BranchList][Air Loop Branches][branches][132] - Missing required property 'branch_name'.
   ** Severe  ** <root>[BranchList][Air Loop Branches][branches][133] - Missing required property 'branch_name'.
   ** Severe  ** <root>[BranchList][Air Loop Branches][branches][134] - Missing required property 'branch_name'.
   ** Severe  ** <root>[BranchList][Air Loop Branches][branches][135] - Missing required property 'branch_name'.
   ** Severe  ** <root>[BranchList][Air Loop Branches][branches][136] - Missing required property 'branch_name'.
   ** Severe  ** <root>[BranchList][Air Loop Branches][branches][137] - Missing required property 'branch_name'.
   ** Severe  ** <root>[BranchList][Air Loop Branches][branches][138] - Missing required property 'branch_name'.
   ** Severe  ** <root>[BranchList][Air Loop Branches][branches][139] - Missing required property 'branch_name'.
   ** Severe  ** <root>[BranchList][Air Loop Branches][branches][140] - Missing required property 'branch_name'.
   ** Severe  ** <root>[BranchList][Air Loop Branches][branches][141] - Missing required property 'branch_name'.
   ** Severe  ** <root>[BranchList][Air Loop Branches][branches][142] - Missing required property 'branch_name'.
   ** Severe  ** <root>[BranchList][Air Loop Branches][branches][143] - Missing required property 'branch_name'.
   ** Severe  ** <root>[BranchList][Air Loop Branches][branches][144] - Missing required property 'branch_name'.
   ** Severe  ** <root>[BranchList][Air Loop Branches][branches][145] - Missing required property 'branch_name'.
   ** Severe  ** <root>[BranchList][Air Loop Branches][branches][146] - Missing required property 'branch_name'.
   ** Severe  ** <root>[BranchList][Air Loop Branches][branches][147] - Missing required property 'branch_name'.
   ** Severe  ** <root>[BranchList][Air Loop Branches][branches][148] - Missing required property 'branch_name'.
   ** Severe  ** <root>[BranchList][Air Loop Branches][branches][149] - Missing required property 'branch_name'.
   ** Severe  ** <root>[BranchList][Air Loop Branches][branches][150] - Missing required property 'branch_name'.
   ** Severe  ** <root>[BranchList][Air Loop Branches][branches][151] - Missing required property 'branch_name'.
   ** Severe  ** <root>[BranchList][Air Loop Branches][branches][152] - Missing required property 'branch_name'.
   ** Severe  ** <root>[BranchList][Air Loop Branches][branches][153] - Missing required property 'branch_name'.
   ** Severe  ** <root>[BranchList][Air Loop Branches][branches][154] - Missing required property 'branch_name'.
   ** Severe  ** <root>[BranchList][Air Loop Branches][branches][155] - Missing required property 'branch_name'.
   ** Severe  ** <root>[BranchList][Air Loop Branches][branches][156] - Missing required property 'branch_name'.
   ** Severe  ** <root>[BranchList][Air Loop Branches][branches][157] - Missing required property 'branch_name'.
   ** Severe  ** <root>[BranchList][Air Loop Branches][branches][158] - Missing required property 'branch_name'.
   ** Severe  ** <root>[BranchList][Air Loop Branches][branches][159] - Missing required property 'branch_name'.
   ** Severe  ** <root>[BranchList][Air Loop Branches][branches][160] - Missing required property 'branch_name'.
   ** Severe  ** <root>[BranchList][Air Loop Branches][branches][161] - Missing required property 'branch_name'.
   ** Severe  ** <root>[BranchList][Air Loop Branches][branches][162] - Missing required property 'branch_name'.
   ** Severe  ** <root>[BranchList][Air Loop Branches][branches][163] - Missing required property 'branch_name'.
   ** Severe  ** <root>[BranchList][Air Loop Branches][branches][164] - Missing required property 'branch_name'.
   ** Severe  ** <root>[BranchList][Air Loop Branches][branches][165] - Missing required property 'branch_name'.
   ** Severe  ** <root>[BranchList][Air Loop Branches][branches][166] - Missing required property 'branch_name'.
   ** Severe  ** <root>[BranchList][Air Loop Branches][branches][167] - Missing required property 'branch_name'.
   ** Severe  ** <root>[BranchList][Air Loop Branches][branches][168] - Missing required property 'branch_name'.
   ** Severe  ** <root>[BranchList][Air Loop Branches][branches][169] - Missing required property 'branch_name'.
   ** Severe  ** <root>[BranchList][Air Loop Branches][branches][170] - Missing required property 'branch_name'.
   ** Severe  ** <root>[BranchList][Air Loop Branches][branches][171] - Missing required property 'branch_name'.
   ** Severe  ** <root>[BranchList][Air Loop Branches][branches][172] - Missing required property 'branch_name'.
   ** Severe  ** <root>[BranchList][Air Loop Branches][branches][173] - Missing required property 'branch_name'.
   ** Severe  ** <root>[BranchList][Air Loop Branches][branches][174] - Missing required property 'branch_name'.
   ** Severe  ** <root>[BranchList][Air Loop Branches][branches][175] - Missing required property 'branch_name'.
   ** Severe  ** <root>[BranchList][Air Loop Branches][branches][176] - Missing required property 'branch_name'.
   ** Severe  ** <root>[BranchList][Air Loop Branches][branches][177] - Missing required property 'branch_name'.
   ** Severe  ** <root>[BranchList][Air Loop Branches][branches][178] - Missing required property 'branch_name'.
   ** Severe  ** <root>[BranchList][Air Loop Branches][branches][179] - Missing required property 'branch_name'.
   ** Severe  ** <root>[BranchList][Air Loop Branches][branches][180] - Missing required property 'branch_name'.
   ** Severe  ** <root>[BranchList][Air Loop Branches][branches][181] - Missing required property 'branch_name'.
   ** Severe  ** <root>[BranchList][Air Loop Branches][branches][182] - Missing required property 'branch_name'.
   ** Severe  ** <root>[BranchList][Air Loop Branches][branches][183] - Missing required property 'branch_name'.
   ** Severe  ** <root>[BranchList][Air Loop Branches][branches][184] - Missing required property 'branch_name'.
   ** Severe  ** <root>[BranchList][Air Loop Branches][branches][185] - Missing required property 'branch_name'.
   ** Severe  ** <root>[BranchList][Air Loop Branches][branches][186] - Missing required property 'branch_name'.
   ** Severe  ** <root>[BranchList][Air Loop Branches][branches][187] - Missing required property 'branch_name'.
   ** Severe  ** <root>[BranchList][Air Loop Branches][branches][188] - Missing required property 'branch_name'.
   ** Severe  ** <root>[BranchList][Air Loop Branches][branches][189] - Missing required property 'branch_name'.
   ** Severe  ** <root>[BranchList][Air Loop Branches][branches][190] - Missing required property 'branch_name'.
   ** Severe  ** <root>[BranchList][Air Loop Branches][branches][191] - Missing required property 'branch_name'.
   ** Severe  ** <root>[BranchList][Air Loop Branches][branches][192] - Missing required property 'branch_name'.
   ** Severe  ** <root>[BranchList][Air Loop Branches][branches][193] - Missing required property 'branch_name'.
   ** Severe  ** <root>[BranchList][Air Loop Branches][branches][194] - Missing required property 'branch_name'.
   ** Severe  ** <root>[BranchList][Air Loop Branches][branches][195] - Missing required property 'branch_name'.
   ** Severe  ** <root>[BranchList][Air Loop Branches][branches][196] - Missing required property 'branch_name'.
   ** Severe  ** <root>[BranchList][Air Loop Branches][branches][197] - Missing required property 'branch_name'.
   ** Severe  ** <root>[BranchList][Air Loop Branches][branches][198] - Missing required property 'branch_name'.
   ** Severe  ** <root>[BranchList][Air Loop Branches][branches][199] - Missing required property 'branch_name'.
   ** Severe  ** <root>[BranchList][Air Loop Branches][branches][200] - Missing required property 'branch_name'.
   ** Severe  ** <root>[BranchList][Air Loop Branches][branches][201] - Missing required property 'branch_name'.
   ** Severe  ** <root>[BranchList][Air Loop Branches][branches][202] - Missing required property 'branch_name'.
   ** Severe  ** <root>[BranchList][Air Loop Branches][branches][203] - Missing required property 'branch_name'.
   ** Severe  ** <root>[BranchList][Air Loop Branches][branches][204] - Missing required property 'branch_name'.
   ** Severe  ** <root>[BranchList][Air Loop Branches][branches][205] - Missing required property 'branch_name'.
   ** Severe  ** <root>[BranchList][Air Loop Branches][branches][206] - Missing required property 'branch_name'.
   ** Severe  ** <root>[BranchList][Air Loop Branches][branches][207] - Missing required property 'branch_name'.
   ** Severe  ** <root>[BranchList][Air Loop Branches][branches][208] - Missing required property 'branch_name'.
   ** Severe  ** <root>[BranchList][Air Loop Branches][branches][209] - Missing required property 'branch_name'.
   ** Severe  ** <root>[BranchList][Air Loop Branches][branches][210] - Missing required property 'branch_name'.
   ** Severe  ** <root>[BranchList][Air Loop Branches][branches][211] - Missing required property 'branch_name'.
   ** Severe  ** <root>[BranchList][Air Loop Branches][branches][212] - Missing required property 'branch_name'.
   ** Severe  ** <root>[BranchList][Air Loop Branches][branches][213] - Missing required property 'branch_name'.
   ** Severe  ** <root>[BranchList][Air Loop Branches][branches][214] - Missing required property 'branch_name'.
   ** Severe  ** <root>[BranchList][Air Loop Branches][branches][215] - Missing required property 'branch_name'.
   ** Severe  ** <root>[BranchList][Air Loop Branches][branches][216] - Missing required property 'branch_name'.
   ** Severe  ** <root>[BranchList][Air Loop Branches][branches][217] - Missing required property 'branch_name'.
   ** Severe  ** <root>[BranchList][Air Loop Branches][branches][218] - Missing required property 'branch_name'.
   ** Severe  ** <root>[BranchList][Air Loop Branches][branches][219] - Missing required property 'branch_name'.
   ** Severe  ** <root>[BranchList][Air Loop Branches][branches][220] - Missing required property 'branch_name'.
   ** Severe  ** <root>[BranchList][Air Loop Branches][branches][221] - Missing required property 'branch_name'.
   ** Severe  ** <root>[BranchList][Air Loop Branches][branches][222] - Missing required property 'branch_name'.
   ** Severe  ** <root>[BranchList][Air Loop Branches][branches][223] - Missing required property 'branch_name'.
   ** Severe  ** <root>[BranchList][Air Loop Branches][branches][224] - Missing required property 'branch_name'.
   ** Severe  ** <root>[BranchList][Air Loop Branches][branches][225] - Missing required property 'branch_name'.
   ** Severe  ** <root>[BranchList][Air Loop Branches][branches][226] - Missing required property 'branch_name'.
   ** Severe  ** <root>[BranchList][Air Loop Branches][branches][227] - Missing required property 'branch_name'.
   ** Severe  ** <root>[BranchList][Air Loop Branches][branches][228] - Missing required property 'branch_name'.
   ** Severe  ** <root>[BranchList][Air Loop Branches][branches][229] - Missing required property 'branch_name'.
   ** Severe  ** <root>[BranchList][Air Loop Branches][branches][230] - Missing required property 'branch_name'.
   ** Severe  ** <root>[BranchList][Air Loop Branches][branches][231] - Missing required property 'branch_name'.
   ** Severe  ** <root>[BranchList][Air Loop Branches][branches][232] - Missing required property 'branch_name'.
   ** Severe  ** <root>[BranchList][Air Loop Branches][branches][233] - Missing required property 'branch_name'.
   ** Severe  ** <root>[BranchList][Air Loop Branches][branches][234] - Missing required property 'branch_name'.
   ** Severe  ** <root>[BranchList][Air Loop Branches][branches][235] - Missing required property 'branch_name'.
   ** Severe  ** <root>[BranchList][Air Loop Branches][branches][236] - Missing required property 'branch_name'.
   ** Severe  ** <root>[BranchList][Air Loop Branches][branches][237] - Missing required property 'branch_name'.
   ** Severe  ** <root>[BranchList][Air Loop Branches][branches][238] - Missing required property 'branch_name'.
   ** Severe  ** <root>[BranchList][Air Loop Branches][branches][239] - Missing required property 'branch_name'.
   ** Severe  ** <root>[BranchList][Air Loop Branches][branches][240] - Missing required property 'branch_name'.
   ** Severe  ** <root>[BranchList][Air Loop Branches][branches][241] - Missing required property 'branch_name'.
   ** Severe  ** <root>[BranchList][Air Loop Branches][branches][242] - Missing required property 'branch_name'.
   ** Severe  ** <root>[BranchList][Air Loop Branches][branches][243] - Missing required property 'branch_name'.
   ** Severe  ** <root>[BranchList][Air Loop Branches][branches][244] - Missing required property 'branch_name'.
   ** Severe  ** <root>[BranchList][Air Loop Branches][branches][245] - Missing required property 'branch_name'.
   ** Severe  ** <root>[BranchList][Air Loop Branches][branches][246] - Missing required property 'branch_name'.
   ** Severe  ** <root>[BranchList][Air Loop Branches][branches][247] - Missing required property 'branch_name'.
   ** Severe  ** <root>[BranchList][Air Loop Branches][branches][248] - Missing required property 'branch_name'.
   ** Severe  ** <root>[BranchList][Air Loop Branches][branches][249] - Missing required property 'branch_name'.
   ** Severe  ** <root>[BranchList][Air Loop Branches][branches][250] - Missing required property 'branch_name'.
   ** Severe  ** <root>[BranchList][Air Loop Branches][branches][251] - Missing required property 'branch_name'.
   ** Severe  ** <root>[BranchList][Air Loop Branches][branches][252] - Missing required property 'branch_name'.
   ** Severe  ** <root>[BranchList][Air Loop Branches][branches][253] - Missing required property 'branch_name'.
   ** Severe  ** <root>[BranchList][Air Loop Branches][branches][254] - Missing required property 'branch_name'.
   ** Severe  ** <root>[BranchList][Air Loop Branches][branches][255] - Missing required property 'branch_name'.
   ** Severe  ** <root>[BranchList][Air Loop Branches][branches][256] - Missing required property 'branch_name'.
   ** Severe  ** <root>[BranchList][Air Loop Branches][branches][257] - Missing required property 'branch_name'.
   ** Severe  ** <root>[BranchList][Air Loop Branches][branches][258] - Missing required property 'branch_name'.
   ** Severe  ** <root>[BranchList][Air Loop Branches][branches][259] - Missing required property 'branch_name'.
   ** Severe  ** <root>[BranchList][Air Loop Branches][branches][260] - Missing required property 'branch_name'.
   ** Severe  ** <root>[BranchList][Air Loop Branches][branches][261] - Missing required property 'branch_name'.
   ** Severe  ** <root>[BranchList][Air Loop Branches][branches][262] - Missing required property 'branch_name'.
   ** Severe  ** <root>[BranchList][Air Loop Branches][branches][263] - Missing required property 'branch_name'.
   ** Severe  ** <root>[BranchList][Air Loop Branches][branches][264] - Missing required property 'branch_name'.
   ** Severe  ** <root>[BranchList][Air Loop Branches][branches][265] - Missing required property 'branch_name'.
   ** Severe  ** <root>[BranchList][Air Loop Branches][branches][266] - Missing required property 'branch_name'.
   ** Severe  ** <root>[BranchList][Air Loop Branches][branches][267] - Missing required property 'branch_name'.
   ** Severe  ** <root>[BranchList][Air Loop Branches][branches][268] - Missing required property 'branch_name'.
   ** Severe  ** <root>[BranchList][Air Loop Branches][branches][269] - Missing required property 'branch_name'.
   ** Severe  ** <root>[BranchList][Air Loop Branches][branches][270] - Missing required property 'branch_name'.
   ** Severe  ** <root>[BranchList][Air Loop Branches][branches][271] - Missing required property 'branch_name'.
   ** Severe  ** <root>[BranchList][Air Loop Branches][branches][272] - Missing required property 'branch_name'.
   ** Severe  ** <root>[BranchList][Air Loop Branches][branches][273] - Missing required property 'branch_name'.
   ** Severe  ** <root>[BranchList][Air Loop Branches][branches][274] - Missing required property 'branch_name'.
   ** Severe  ** <root>[BranchList][Air Loop Branches][branches][275] - Missing required property 'branch_name'.
   ** Severe  ** <root>[BranchList][Air Loop Branches][branches][276] - Missing required property 'branch_name'.
   ** Severe  ** <root>[BranchList][Air Loop Branches][branches][277] - Missing required property 'branch_name'.
   ** Severe  ** <root>[BranchList][Air Loop Branches][branches][278] - Missing required property 'branch_name'.
   ** Severe  ** <root>[BranchList][Air Loop Branches][branches][279] - Missing required property 'branch_name'.
   ** Severe  ** <root>[BranchList][Air Loop Branches][branches][280] - Missing required property 'branch_name'.
   ** Severe  ** <root>[BranchList][Air Loop Branches][branches][281] - Missing required property 'branch_name'.
   ** Severe  ** <root>[BranchList][Air Loop Branches][branches][282] - Missing required property 'branch_name'.
   ** Severe  ** <root>[BranchList][Air Loop Branches][branches][283] - Missing required property 'branch_name'.
   ** Severe  ** <root>[BranchList][Air Loop Branches][branches][284] - Missing required property 'branch_name'.
   ** Severe  ** <root>[BranchList][Air Loop Branches][branches][285] - Missing required property 'branch_name'.
   ** Severe  ** <root>[BranchList][Air Loop Branches][branches][286] - Missing required property 'branch_name'.
   ** Severe  ** <root>[BranchList][Air Loop Branches][branches][287] - Missing required property 'branch_name'.
   ** Severe  ** <root>[BranchList][Air Loop Branches][branches][288] - Missing required property 'branch_name'.
   ** Severe  ** <root>[BranchList][Air Loop Branches][branches][289] - Missing required property 'branch_name'.
   ** Severe  ** <root>[BranchList][Air Loop Branches][branches][290] - Missing required property 'branch_name'.
   ** Severe  ** <root>[BranchList][Air Loop Branches][branches][291] - Missing required property 'branch_name'.
   ** Severe  ** <root>[BranchList][Air Loop Branches][branches][292] - Missing required property 'branch_name'.
   ** Severe  ** <root>[BranchList][Air Loop Branches][branches][293] - Missing required property 'branch_name'.
   ** Severe  ** <root>[BranchList][Air Loop Branches][branches][294] - Missing required property 'branch_name'.
   ** Severe  ** <root>[BranchList][Air Loop Branches][branches][295] - Missing required property 'branch_name'.
   ** Severe  ** <root>[BranchList][Air Loop Branches][branches][296] - Missing required property 'branch_name'.
   ** Severe  ** <root>[BranchList][Air Loop Branches][branches][297] - Missing required property 'branch_name'.
   ** Severe  ** <root>[BranchList][Air Loop Branches][branches][298] - Missing required property 'branch_name'.
   ** Severe  ** <root>[BranchList][Air Loop Branches][branches][299] - Missing required property 'branch_name'.
   ** Severe  ** <root>[BranchList][Air Loop Branches][branches][300] - Missing required property 'branch_name'.
   ** Severe  ** <root>[BranchList][Air Loop Branches][branches][301] - Missing required property 'branch_name'.
   ** Severe  ** <root>[BranchList][Air Loop Branches][branches][302] - Missing required property 'branch_name'.
   ** Severe  ** <root>[BranchList][Air Loop Branches][branches][303] - Missing required property 'branch_name'.
   ** Severe  ** <root>[BranchList][Air Loop Branches][branches][304] - Missing required property 'branch_name'.
   ** Severe  ** <root>[BranchList][Air Loop Branches][branches][305] - Missing required property 'branch_name'.
   ** Severe  ** <root>[BranchList][Air Loop Branches][branches][306] - Missing required property 'branch_name'.
   ** Severe  ** <root>[BranchList][Air Loop Branches][branches][307] - Missing required property 'branch_name'.
   ** Severe  ** <root>[BranchList][Air Loop Branches][branches][308] - Missing required property 'branch_name'.
   ** Severe  ** <root>[BranchList][Air Loop Branches][branches][309] - Missing required property 'branch_name'.
   ** Severe  ** <root>[BranchList][Air Loop Branches][branches][310] - Missing required property 'branch_name'.
   ** Severe  ** <root>[BranchList][Air Loop Branches][branches][311] - Missing required property 'branch_name'.
   ** Severe  ** <root>[BranchList][Air Loop Branches][branches][312] - Missing required property 'branch_name'.
   ** Severe  ** <root>[BranchList][Air Loop Branches][branches][313] - Missing required property 'branch_name'.
   ** Severe  ** <root>[BranchList][Air Loop Branches][branches][314] - Missing required property 'branch_name'.
   ** Severe  ** <root>[BranchList][Air Loop Branches][branches][315] - Missing required property 'branch_name'.
   ** Severe  ** <root>[BranchList][Air Loop Branches][branches][316] - Missing required property 'branch_name'.
   ** Severe  ** <root>[BranchList][Air Loop Branches][branches][317] - Missing required property 'branch_name'.
   ** Severe  ** <root>[BranchList][Air Loop Branches][branches][318] - Missing required property 'branch_name'.
   ** Severe  ** <root>[BranchList][Air Loop Branches][branches][319] - Missing required property 'branch_name'.
   ** Severe  ** <root>[BranchList][Air Loop Branches][branches][320] - Missing required property 'branch_name'.
   ** Severe  ** <root>[BranchList][Air Loop Branches][branches][321] - Missing required property 'branch_name'.
   ** Severe  ** <root>[BranchList][Air Loop Branches][branches][322] - Missing required property 'branch_name'.
   ** Severe  ** <root>[BranchList][Air Loop Branches][branches][323] - Missing required property 'branch_name'.
   ** Severe  ** <root>[BranchList][Air Loop Branches][branches][324] - Missing required property 'branch_name'.
   ** Severe  ** <root>[BranchList][Air Loop Branches][branches][325] - Missing required property 'branch_name'.
   ** Severe  ** <root>[BranchList][Air Loop Branches][branches][326] - Missing required property 'branch_name'.
   ** Severe  ** <root>[BranchList][Air Loop Branches][branches][327] - Missing required property 'branch_name'.
   ** Severe  ** <root>[BranchList][Air Loop Branches][branches][328] - Missing required property 'branch_name'.
   ** Severe  ** <root>[BranchList][Air Loop Branches][branches][329] - Missing required property 'branch_name'.
   ** Severe  ** <root>[BranchList][Air Loop Branches][branches][330] - Missing required property 'branch_name'.
   ** Severe  ** <root>[BranchList][Air Loop Branches][branches][331] - Missing required property 'branch_name'.
   ** Severe  ** <root>[BranchList][Air Loop Branches][branches][332] - Missing required property 'branch_name'.
   ** Severe  ** <root>[BranchList][Air Loop Branches][branches][333] - Missing required property 'branch_name'.
   ** Severe  ** <root>[BranchList][Air Loop Branches][branches][334] - Missing required property 'branch_name'.
   ** Severe  ** <root>[BranchList][Air Loop Branches][branches][335] - Missing required property 'branch_name'.
   ** Severe  ** <root>[BranchList][Air Loop Branches][branches][336] - Missing required property 'branch_name'.
   ** Severe  ** <root>[BranchList][Air Loop Branches][branches][337] - Missing required property 'branch_name'.
   ** Severe  ** <root>[BranchList][Air Loop Branches][branches][338] - Missing required property 'branch_name'.
   ** Severe  ** <root>[BranchList][Air Loop Branches][branches][339] - Missing required property 'branch_name'.
   ** Severe  ** <root>[BranchList][Air Loop Branches][branches][340] - Missing required property 'branch_name'.
   ** Severe  ** <root>[BranchList][Air Loop Branches][branches][341] - Missing required property 'branch_name'.
   ** Severe  ** <root>[BranchList][Air Loop Branches][branches][342] - Missing required property 'branch_name'.
   ** Severe  ** <root>[BranchList][Air Loop Branches][branches][343] - Missing required property 'branch_name'.
   ** Severe  ** <root>[BranchList][Air Loop Branches][branches][344] - Missing required property 'branch_name'.
   ** Severe  ** <root>[BranchList][Air Loop Branches][branches][345] - Missing required property 'branch_name'.
   ** Severe  ** <root>[BranchList][Air Loop Branches][branches][346] - Missing required property 'branch_name'.
   ** Severe  ** <root>[BranchList][Air Loop Branches][branches][347] - Missing required property 'branch_name'.
   ** Severe  ** <root>[BranchList][Air Loop Branches][branches][348] - Missing required property 'branch_name'.
   ** Severe  ** <root>[BranchList][Air Loop Branches][branches][349] - Missing required property 'branch_name'.
   ** Severe  ** <root>[BranchList][Air Loop Branches][branches][350] - Missing required property 'branch_name'.
   ** Severe  ** <root>[BranchList][Air Loop Branches][branches][351] - Missing required property 'branch_name'.
   ** Severe  ** <root>[BranchList][Air Loop Branches][branches][352] - Missing required property 'branch_name'.
   ** Severe  ** <root>[BranchList][Air Loop Branches][branches][353] - Missing required property 'branch_name'.
   ** Severe  ** <root>[BranchList][Air Loop Branches][branches][354] - Missing required property 'branch_name'.
   ** Severe  ** <root>[BranchList][Air Loop Branches][branches][355] - Missing required property 'branch_name'.
   ** Severe  ** <root>[BranchList][Air Loop Branches][branches][356] - Missing required property 'branch_name'.
   ** Severe  ** <root>[BranchList][Air Loop Branches][branches][357] - Missing required property 'branch_name'.
   ** Severe  ** <root>[BranchList][Air Loop Branches][branches][358] - Missing required property 'branch_name'.
   ** Severe  ** <root>[BranchList][Air Loop Branches][branches][359] - Missing required property 'branch_name'.
   ** Severe  ** <root>[BranchList][Air Loop Branches][branches][360] - Missing required property 'branch_name'.
   ** Severe  ** <root>[BranchList][Air Loop Branches][branches][361] - Missing required property 'branch_name'.
   ** Severe  ** <root>[BranchList][Air Loop Branches][branches][362] - Missing required property 'branch_name'.
   ** Severe  ** <root>[BranchList][Air Loop Branches][branches][363] - Missing required property 'branch_name'.
   ** Severe  ** <root>[BranchList][Air Loop Branches][branches][364] - Missing required property 'branch_name'.
   ** Severe  ** <root>[BranchList][Air Loop Branches][branches][365] - Missing required property 'branch_name'.
   ** Severe  ** <root>[BranchList][Air Loop Branches][branches][366] - Missing required property 'branch_name'.
   ** Severe  ** <root>[BranchList][Air Loop Branches][branches][367] - Missing required property 'branch_name'.
   ** Severe  ** <root>[BranchList][Air Loop Branches][branches][368] - Missing required property 'branch_name'.
   ** Severe  ** <root>[BranchList][Air Loop Branches][branches][369] - Missing required property 'branch_name'.
   ** Severe  ** <root>[BranchList][Air Loop Branches][branches][370] - Missing required property 'branch_name'.
   ** Severe  ** <root>[BranchList][Air Loop Branches][branches][371] - Missing required property 'branch_name'.
   ** Severe  ** <root>[BranchList][Air Loop Branches][branches][372] - Missing required property 'branch_name'.
   ** Severe  ** <root>[BranchList][Air Loop Branches][branches][373] - Missing required property 'branch_name'.
   ** Severe  ** <root>[BranchList][Air Loop Branches][branches][374] - Missing required property 'branch_name'.
   ** Severe  ** <root>[BranchList][Air Loop Branches][branches][375] - Missing required property 'branch_name'.
   ** Severe  ** <root>[BranchList][Air Loop Branches][branches][376] - Missing required property 'branch_name'.
   ** Severe  ** <root>[BranchList][Air Loop Branches][branches][377] - Missing required property 'branch_name'.
   ** Severe  ** <root>[BranchList][Air Loop Branches][branches][378] - Missing required property 'branch_name'.
   ** Severe  ** <root>[BranchList][Air Loop Branches][branches][379] - Missing required property 'branch_name'.
   ** Severe  ** <root>[BranchList][Air Loop Branches][branches][380] - Missing required property 'branch_name'.
   ** Severe  ** <root>[BranchList][Air Loop Branches][branches][381] - Missing required property 'branch_name'.
   ** Severe  ** <root>[BranchList][Air Loop Branches][branches][382] - Missing required property 'branch_name'.
   ** Severe  ** <root>[BranchList][Air Loop Branches][branches][383] - Missing required property 'branch_name'.
   ** Severe  ** <root>[BranchList][Air Loop Branches][branches][384] - Missing required property 'branch_name'.
   ** Severe  ** <root>[BranchList][Air Loop Branches][branches][385] - Missing required property 'branch_name'.
   ** Severe  ** <root>[BranchList][Air Loop Branches][branches][386] - Missing required property 'branch_name'.
   ** Severe  ** <root>[BranchList][Air Loop Branches][branches][387] - Missing required property 'branch_name'.
   ** Severe  ** <root>[BranchList][Air Loop Branches][branches][388] - Missing required property 'branch_name'.
   ** Severe  ** <root>[BranchList][Air Loop Branches][branches][389] - Missing required property 'branch_name'.
   ** Severe  ** <root>[BranchList][Air Loop Branches][branches][390] - Missing required property 'branch_name'.
   ** Severe  ** <root>[BranchList][Air Loop Branches][branches][391] - Missing required property 'branch_name'.
   ** Severe  ** <root>[BranchList][Air Loop Branches][branches][392] - Missing required property 'branch_name'.
   ** Severe  ** <root>[BranchList][Air Loop Branches][branches][393] - Missing required property 'branch_name'.
   ** Severe  ** <root>[BranchList][Air Loop Branches][branches][394] - Missing required property 'branch_name'.
   ** Severe  ** <root>[BranchList][Air Loop Branches][branches][395] - Missing required property 'branch_name'.
   ** Severe  ** <root>[BranchList][Air Loop Branches][branches][396] - Missing required property 'branch_name'.
   ** Severe  ** <root>[BranchList][Air Loop Branches][branches][397] - Missing required property 'branch_name'.
   ** Severe  ** <root>[BranchList][Air Loop Branches][branches][398] - Missing required property 'branch_name'.
   ** Severe  ** <root>[BranchList][Air Loop Branches][branches][399] - Missing required property 'branch_name'.
   ** Severe  ** <root>[BranchList][Air Loop Branches][branches][400] - Missing required property 'branch_name'.
   ** Severe  ** <root>[BranchList][Air Loop Branches][branches][401] - Missing required property 'branch_name'.
   ** Severe  ** <root>[BranchList][Air Loop Branches][branches][402] - Missing required property 'branch_name'.
   ** Severe  ** <root>[BranchList][Air Loop Branches][branches][403] - Missing required property 'branch_name'.
   ** Severe  ** <root>[BranchList][Air Loop Branches][branches][404] - Missing required property 'branch_name'.
   ** Severe  ** <root>[BranchList][Air Loop Branches][branches][405] - Missing required property 'branch_name'.
   ** Severe  ** <root>[BranchList][Air Loop Branches][branches][406] - Missing required property 'branch_name'.
   ** Severe  ** <root>[BranchList][Air Loop Branches][branches][407] - Missing required property 'branch_name'.
   ** Severe  ** <root>[BranchList][Air Loop Branches][branches][408] - Missing required property 'branch_name'.
   ** Severe  ** <root>[BranchList][Air Loop Branches][branches][409] - Missing required property 'branch_name'.
   ** Severe  ** <root>[BranchList][Air Loop Branches][branches][410] - Missing required property 'branch_name'.
   ** Severe  ** <root>[BranchList][Air Loop Branches][branches][411] - Missing required property 'branch_name'.
   ** Severe  ** <root>[BranchList][Air Loop Branches][branches][412] - Missing required property 'branch_name'.
   ** Severe  ** <root>[BranchList][Air Loop Branches][branches][413] - Missing required property 'branch_name'.
   ** Severe  ** <root>[BranchList][Air Loop Branches][branches][414] - Missing required property 'branch_name'.
   ** Severe  ** <root>[BranchList][Air Loop Branches][branches][415] - Missing required property 'branch_name'.
   ** Severe  ** <root>[BranchList][Air Loop Branches][branches][416] - Missing required property 'branch_name'.
   ** Severe  ** <root>[BranchList][Air Loop Branches][branches][417] - Missing required property 'branch_name'.
   ** Severe  ** <root>[BranchList][Air Loop Branches][branches][418] - Missing required property 'branch_name'.
   ** Severe  ** <root>[BranchList][Air Loop Branches][branches][419] - Missing required property 'branch_name'.
   ** Severe  ** <root>[BranchList][Air Loop Branches][branches][420] - Missing required property 'branch_name'.
   ** Severe  ** <root>[BranchList][Air Loop Branches][branches][421] - Missing required property 'branch_name'.
   ** Severe  ** <root>[BranchList][Air Loop Branches][branches][422] - Missing required property 'branch_name'.
   ** Severe  ** <root>[BranchList][Air Loop Branches][branches][423] - Missing required property 'branch_name'.
   ** Severe  ** <root>[BranchList][Air Loop Branches][branches][424] - Missing required property 'branch_name'.
   ** Severe  ** <root>[BranchList][Air Loop Branches][branches][425] - Missing required property 'branch_name'.
   ** Severe  ** <root>[BranchList][Air Loop Branches][branches][426] - Missing required property 'branch_name'.
   ** Severe  ** <root>[BranchList][Air Loop Branches][branches][427] - Missing required property 'branch_name'.
   ** Severe  ** <root>[BranchList][Air Loop Branches][branches][428] - Missing required property 'branch_name'.
   ** Severe  ** <root>[BranchList][Air Loop Branches][branches][429] - Missing required property 'branch_name'.
   ** Severe  ** <root>[BranchList][Air Loop Branches][branches][430] - Missing required property 'branch_name'.
   ** Severe  ** <root>[BranchList][Air Loop Branches][branches][431] - Missing required property 'branch_name'.
   ** Severe  ** <root>[BranchList][Air Loop Branches][branches][432] - Missing required property 'branch_name'.
   ** Severe  ** <root>[BranchList][Air Loop Branches][branches][433] - Missing required property 'branch_name'.
   ** Severe  ** <root>[BranchList][Air Loop Branches][branches][434] - Missing required property 'branch_name'.
   ** Severe  ** <root>[BranchList][Air Loop Branches][branches][435] - Missing required property 'branch_name'.
   ** Severe  ** <root>[BranchList][Air Loop Branches][branches][436] - Missing required property 'branch_name'.
   ** Severe  ** <root>[BranchList][Air Loop Branches][branches][437] - Missing required property 'branch_name'.
   ** Severe  ** <root>[BranchList][Air Loop Branches][branches][438] - Missing required property 'branch_name'.
   ** Severe  ** <root>[BranchList][Air Loop Branches][branches][439] - Missing required property 'branch_name'.
   ** Severe  ** <root>[BranchList][Air Loop Branches][branches][440] - Missing required property 'branch_name'.
   ** Severe  ** <root>[BranchList][Air Loop Branches][branches][441] - Missing required property 'branch_name'.
   ** Severe  ** <root>[BranchList][Air Loop Branches][branches][442] - Missing required property 'branch_name'.
   ** Severe  ** <root>[BranchList][Air Loop Branches][branches][443] - Missing required property 'branch_name'.
   ** Severe  ** <root>[BranchList][Air Loop Branches][branches][444] - Missing required property 'branch_name'.
   ** Severe  ** <root>[BranchList][Air Loop Branches][branches][445] - Missing required property 'branch_name'.
   ** Severe  ** <root>[BranchList][Air Loop Branches][branches][446] - Missing required property 'branch_name'.
   ** Severe  ** <root>[BranchList][Air Loop Branches][branches][447] - Missing required property 'branch_name'.
   ** Severe  ** <root>[BranchList][Air Loop Branches][branches][448] - Missing required property 'branch_name'.
   ** Severe  ** <root>[BranchList][Air Loop Branches][branches][449] - Missing required property 'branch_name'.
   ** Severe  ** <root>[BranchList][Air Loop Branches][branches][450] - Missing required property 'branch_name'.
   ** Severe  ** <root>[BranchList][Air Loop Branches][branches][451] - Missing required property 'branch_name'.
   ** Severe  ** <root>[BranchList][Air Loop Branches][branches][452] - Missing required property 'branch_name'.
   ** Severe  ** <root>[BranchList][Air Loop Branches][branches][453] - Missing required property 'branch_name'.
   ** Severe  ** <root>[BranchList][Air Loop Branches][branches][454] - Missing required property 'branch_name'.
   ** Severe  ** <root>[BranchList][Air Loop Branches][branches][455] - Missing required property 'branch_name'.
   ** Severe  ** <root>[BranchList][Air Loop Branches][branches][456] - Missing required property 'branch_name'.
   ** Severe  ** <root>[BranchList][Air Loop Branches][branches][457] - Missing required property 'branch_name'.
   ** Severe  ** <root>[BranchList][Air Loop Branches][branches][458] - Missing required property 'branch_name'.
   ** Severe  ** <root>[BranchList][Air Loop Branches][branches][459] - Missing required property 'branch_name'.
   ** Severe  ** <root>[BranchList][Air Loop Branches][branches][460] - Missing required property 'branch_name'.
   ** Severe  ** <root>[BranchList][Air Loop Branches][branches][461] - Missing required property 'branch_name'.
   ** Severe  ** <root>[BranchList][Air Loop Branches][branches][462] - Missing required property 'branch_name'.
   ** Severe  ** <root>[BranchList][Air Loop Branches][branches][463] - Missing required property 'branch_name'.
   ** Severe  ** <root>[BranchList][Air Loop Branches][branches][464] - Missing required property 'branch_name'.
   ** Severe  ** <root>[BranchList][Air Loop Branches][branches][465] - Missing required property 'branch_name'.
   ** Severe  ** <root>[BranchList][Air Loop Branches][branches][466] - Missing required property 'branch_name'.
   ** Severe  ** <root>[BranchList][Air Loop Branches][branches][467] - Missing required property 'branch_name'.
   ** Severe  ** <root>[BranchList][Air Loop Branches][branches][468] - Missing required property 'branch_name'.
   ** Severe  ** <root>[BranchList][Air Loop Branches][branches][469] - Missing required property 'branch_name'.
   ** Severe  ** <root>[BranchList][Air Loop Branches][branches][470] - Missing required property 'branch_name'.
   ** Severe  ** <root>[BranchList][Air Loop Branches][branches][471] - Missing required property 'branch_name'.
   ** Severe  ** <root>[BranchList][Air Loop Branches][branches][472] - Missing required property 'branch_name'.
   ** Severe  ** <root>[BranchList][Air Loop Branches][branches][473] - Missing required property 'branch_name'.
   ** Severe  ** <root>[BranchList][Air Loop Branches][branches][474] - Missing required property 'branch_name'.
   ** Severe  ** <root>[BranchList][Air Loop Branches][branches][475] - Missing required property 'branch_name'.
   ** Severe  ** <root>[BranchList][Air Loop Branches][branches][476] - Missing required property 'branch_name'.
   ** Severe  ** <root>[BranchList][Air Loop Branches][branches][477] - Missing required property 'branch_name'.
   ** Severe  ** <root>[BranchList][Air Loop Branches][branches][478] - Missing required property 'branch_name'.
   ** Severe  ** <root>[BranchList][Air Loop Branches][branches][479] - Missing required property 'branch_name'.
   ** Severe  ** <root>[BranchList][Air Loop Branches][branches][480] - Missing required property 'branch_name'.
   ** Severe  ** <root>[BranchList][Air Loop Branches][branches][481] - Missing required property 'branch_name'.
   ** Severe  ** <root>[BranchList][Air Loop Branches][branches][482] - Missing required property 'branch_name'.
   ** Severe  ** <root>[BranchList][Air Loop Branches][branches][483] - Missing required property 'branch_name'.
   ** Severe  ** <root>[BranchList][Air Loop Branches][branches][484] - Missing required property 'branch_name'.
   ** Severe  ** <root>[BranchList][Air Loop Branches][branches][485] - Missing required property 'branch_name'.
   ** Severe  ** <root>[BranchList][Air Loop Branches][branches][486] - Missing required property 'branch_name'.
   ** Severe  ** <root>[BranchList][Air Loop Branches][branches][487] - Missing required property 'branch_name'.
   ** Severe  ** <root>[BranchList][Air Loop Branches][branches][488] - Missing required property 'branch_name'.
   ** Severe  ** <root>[BranchList][Air Loop Branches][branches][489] - Missing required property 'branch_name'.
   ** Severe  ** <root>[BranchList][Air Loop Branches][branches][490] - Missing required property 'branch_name'.
   ** Severe  ** <root>[BranchList][Air Loop Branches][branches][491] - Missing required property 'branch_name'.
   ** Severe  ** <root>[BranchList][Air Loop Branches][branches][492] - Missing required property 'branch_name'.
   ** Severe  ** <root>[BranchList][Air Loop Branches][branches][493] - Missing required property 'branch_name'.
   ** Severe  ** <root>[BranchList][Air Loop Branches][branches][494] - Missing required property 'branch_name'.
   ** Severe  ** <root>[BranchList][Air Loop Branches][branches][495] - Missing required property 'branch_name'.
   ** Severe  ** <root>[BranchList][Air Loop Branches][branches][496] - Missing required property 'branch_name'.
   ** Severe  ** <root>[BranchList][Air Loop Branches][branches][497] - Missing required property 'branch_name'.
   ** Severe  ** <root>[BranchList][Air Loop Branches][branches][498] - Missing required property 'branch_name'.
   ** Severe  ** <root>[BranchList][Air Loop Branches][branches][499] - Missing required property 'branch_name'.
   ** Severe  ** <root>[Connector:Mixer][CW Demand Mixer][branches][2] - Missing required property 'inlet_branch_name'.
   ** Severe  ** <root>[Connector:Mixer][CW Demand Mixer][branches][3] - Missing required property 'inlet_branch_name'.
   ** Severe  ** <root>[Connector:Mixer][CW Demand Mixer][branches][4] - Missing required property 'inlet_branch_name'.
   ** Severe  ** <root>[Connector:Mixer][CW Demand Mixer][branches][5] - Missing required property 'inlet_branch_name'.
   ** Severe  ** <root>[Connector:Mixer][CW Demand Mixer][branches][6] - Missing required property 'inlet_branch_name'.
   ** Severe  ** <root>[Connector:Mixer][CW Demand Mixer][branches][7] - Missing required property 'inlet_branch_name'.
   ** Severe  ** <root>[Connector:Mixer][CW Demand Mixer][branches][8] - Missing required property 'inlet_branch_name'.
   ** Severe  ** <root>[Connector:Mixer][CW Demand Mixer][branches][9] - Missing required property 'inlet_branch_name'.
   ** Severe  ** <root>[Connector:Mixer][CW Demand Mixer][branches][10] - Missing required property 'inlet_branch_name'.
   ** Severe  ** <root>[Connector:Mixer][CW Demand Mixer][branches][11] - Missing required property 'inlet_branch_name'.
   ** Severe  ** <root>[Connector:Mixer][CW Demand Mixer][branches][12] - Missing required property 'inlet_branch_name'.
   ** Severe  ** <root>[Connector:Mixer][CW Demand Mixer][branches][13] - Missing required property 'inlet_branch_name'.
   ** Severe  ** <root>[Connector:Mixer][CW Demand Mixer][branches][14] - Missing required property 'inlet_branch_name'.
   ** Severe  ** <root>[Connector:Mixer][CW Demand Mixer][branches][15] - Missing required property 'inlet_branch_name'.
   ** Severe  ** <root>[Connector:Mixer][CW Demand Mixer][branches][16] - Missing required property 'inlet_branch_name'.
   ** Severe  ** <root>[Connector:Mixer][CW Demand Mixer][branches][17] - Missing required property 'inlet_branch_name'.
   ** Severe  ** <root>[Connector:Mixer][CW Demand Mixer][branches][18] - Missing required property 'inlet_branch_name'.
   ** Severe  ** <root>[Connector:Mixer][CW Demand Mixer][branches][19] - Missing required property 'inlet_branch_name'.
   ** Severe  ** <root>[Connector:Mixer][CW Demand Mixer][branches][20] - Missing required property 'inlet_branch_name'.
   ** Severe  ** <root>[Connector:Mixer][CW Demand Mixer][branches][21] - Missing required property 'inlet_branch_name'.
   ** Severe  ** <root>[Connector:Mixer][CW Demand Mixer][branches][22] - Missing required property 'inlet_branch_name'.
   ** Severe  ** <root>[Connector:Mixer][CW Demand Mixer][branches][23] - Missing required property 'inlet_branch_name'.
   ** Severe  ** <root>[Connector:Mixer][CW Demand Mixer][branches][24] - Missing required property 'inlet_branch_name'.
   ** Severe  ** <root>[Connector:Mixer][CW Demand Mixer][branches][25] - Missing required property 'inlet_branch_name'.
   ** Severe  ** <root>[Connector:Mixer][CW Demand Mixer][branches][26] - Missing required property 'inlet_branch_name'.
   ** Severe  ** <root>[Connector:Mixer][CW Demand Mixer][branches][27] - Missing required property 'inlet_branch_name'.
   ** Severe  ** <root>[Connector:Mixer][CW Demand Mixer][branches][28] - Missing required property 'inlet_branch_name'.
   ** Severe  ** <root>[Connector:Mixer][CW Demand Mixer][branches][29] - Missing required property 'inlet_branch_name'.
   ** Severe  ** <root>[Connector:Mixer][CW Demand Mixer][branches][30] - Missing required property 'inlet_branch_name'.
   ** Severe  ** <root>[Connector:Mixer][CW Demand Mixer][branches][31] - Missing required property 'inlet_branch_name'.
   ** Severe  ** <root>[Connector:Mixer][CW Demand Mixer][branches][32] - Missing required property 'inlet_branch_name'.
   ** Severe  ** <root>[Connector:Mixer][CW Demand Mixer][branches][33] - Missing required property 'inlet_branch_name'.
   ** Severe  ** <root>[Connector:Mixer][CW Demand Mixer][branches][34] - Missing required property 'inlet_branch_name'.
   ** Severe  ** <root>[Connector:Mixer][CW Demand Mixer][branches][35] - Missing required property 'inlet_branch_name'.
   ** Severe  ** <root>[Connector:Mixer][CW Demand Mixer][branches][36] - Missing required property 'inlet_branch_name'.
   ** Severe  ** <root>[Connector:Mixer][CW Demand Mixer][branches][37] - Missing required property 'inlet_branch_name'.
   ** Severe  ** <root>[Connector:Mixer][CW Demand Mixer][branches][38] - Missing required property 'inlet_branch_name'.
   ** Severe  ** <root>[Connector:Mixer][CW Demand Mixer][branches][39] - Missing required property 'inlet_branch_name'.
   ** Severe  ** <root>[Connector:Mixer][CW Demand Mixer][branches][40] - Missing required property 'inlet_branch_name'.
   ** Severe  ** <root>[Connector:Mixer][CW Demand Mixer][branches][41] - Missing required property 'inlet_branch_name'.
   ** Severe  ** <root>[Connector:Mixer][CW Demand Mixer][branches][42] - Missing required property 'inlet_branch_name'.
   ** Severe  ** <root>[Connector:Mixer][CW Demand Mixer][branches][43] - Missing required property 'inlet_branch_name'.
   ** Severe  ** <root>[Connector:Mixer][CW Demand Mixer][branches][44] - Missing required property 'inlet_branch_name'.
   ** Severe  ** <root>[Connector:Mixer][CW Demand Mixer][branches][45] - Missing required property 'inlet_branch_name'.
   ** Severe  ** <root>[Connector:Mixer][CW Demand Mixer][branches][46] - Missing required property 'inlet_branch_name'.
   ** Severe  ** <root>[Connector:Mixer][CW Demand Mixer][branches][47] - Missing required property 'inlet_branch_name'.
   ** Severe  ** <root>[Connector:Mixer][CW Demand Mixer][branches][48] - Missing required property 'inlet_branch_name'.
   ** Severe  ** <root>[Connector:Mixer][CW Demand Mixer][branches][49] - Missing required property 'inlet_branch_name'.
   ** Severe  ** <root>[Connector:Mixer][CW Demand Mixer][branches][50] - Missing required property 'inlet_branch_name'.
   ** Severe  ** <root>[Connector:Mixer][CW Demand Mixer][branches][51] - Missing required property 'inlet_branch_name'.
   ** Severe  ** <root>[Connector:Mixer][CW Demand Mixer][branches][52] - Missing required property 'inlet_branch_name'.
   ** Severe  ** <root>[Connector:Mixer][CW Demand Mixer][branches][53] - Missing required property 'inlet_branch_name'.
   ** Severe  ** <root>[Connector:Mixer][CW Demand Mixer][branches][54] - Missing required property 'inlet_branch_name'.
   ** Severe  ** <root>[Connector:Mixer][CW Demand Mixer][branches][55] - Missing required property 'inlet_branch_name'.
   ** Severe  ** <root>[Connector:Mixer][CW Demand Mixer][branches][56] - Missing required property 'inlet_branch_name'.
   ** Severe  ** <root>[Connector:Mixer][CW Demand Mixer][branches][57] - Missing required property 'inlet_branch_name'.
   ** Severe  ** <root>[Connector:Mixer][CW Demand Mixer][branches][58] - Missing required property 'inlet_branch_name'.
   ** Severe  ** <root>[Connector:Mixer][CW Demand Mixer][branches][59] - Missing required property 'inlet_branch_name'.
   ** Severe  ** <root>[Connector:Mixer][CW Demand Mixer][branches][60] - Missing required property 'inlet_branch_name'.
   ** Severe  ** <root>[Connector:Mixer][CW Demand Mixer][branches][61] - Missing required property 'inlet_branch_name'.
   ** Severe  ** <root>[Connector:Mixer][CW Demand Mixer][branches][62] - Missing required property 'inlet_branch_name'.
   ** Severe  ** <root>[Connector:Mixer][CW Demand Mixer][branches][63] - Missing required property 'inlet_branch_name'.
   ** Severe  ** <root>[Connector:Mixer][CW Demand Mixer][branches][64] - Missing required property 'inlet_branch_name'.
   ** Severe  ** <root>[Connector:Mixer][CW Demand Mixer][branches][65] - Missing required property 'inlet_branch_name'.
   ** Severe  ** <root>[Connector:Mixer][CW Demand Mixer][branches][66] - Missing required property 'inlet_branch_name'.
   ** Severe  ** <root>[Connector:Mixer][CW Demand Mixer][branches][67] - Missing required property 'inlet_branch_name'.
   ** Severe  ** <root>[Connector:Mixer][CW Demand Mixer][branches][68] - Missing required property 'inlet_branch_name'.
   ** Severe  ** <root>[Connector:Mixer][CW Demand Mixer][branches][69] - Missing required property 'inlet_branch_name'.
   ** Severe  ** <root>[Connector:Mixer][CW Demand Mixer][branches][70] - Missing required property 'inlet_branch_name'.
   ** Severe  ** <root>[Connector:Mixer][CW Demand Mixer][branches][71] - Missing required property 'inlet_branch_name'.
   ** Severe  ** <root>[Connector:Mixer][CW Demand Mixer][branches][72] - Missing required property 'inlet_branch_name'.
   ** Severe  ** <root>[Connector:Mixer][CW Demand Mixer][branches][73] - Missing required property 'inlet_branch_name'.
   ** Severe  ** <root>[Connector:Mixer][CW Demand Mixer][branches][74] - Missing required property 'inlet_branch_name'.
   ** Severe  ** <root>[Connector:Mixer][CW Demand Mixer][branches][75] - Missing required property 'inlet_branch_name'.
   ** Severe  ** <root>[Connector:Mixer][CW Demand Mixer][branches][76] - Missing required property 'inlet_branch_name'.
   ** Severe  ** <root>[Connector:Mixer][CW Demand Mixer][branches][77] - Missing required property 'inlet_branch_name'.
   ** Severe  ** <root>[Connector:Mixer][CW Demand Mixer][branches][78] - Missing required property 'inlet_branch_name'.
   ** Severe  ** <root>[Connector:Mixer][CW Demand Mixer][branches][79] - Missing required property 'inlet_branch_name'.
   ** Severe  ** <root>[Connector:Mixer][CW Demand Mixer][branches][80] - Missing required property 'inlet_branch_name'.
   ** Severe  ** <root>[Connector:Mixer][CW Demand Mixer][branches][81] - Missing required property 'inlet_branch_name'.
   ** Severe  ** <root>[Connector:Mixer][CW Demand Mixer][branches][82] - Missing required property 'inlet_branch_name'.
   ** Severe  ** <root>[Connector:Mixer][CW Demand Mixer][branches][83] - Missing required property 'inlet_branch_name'.
   ** Severe  ** <root>[Connector:Mixer][CW Demand Mixer][branches][84] - Missing required property 'inlet_branch_name'.
   ** Severe  ** <root>[Connector:Mixer][CW Demand Mixer][branches][85] - Missing required property 'inlet_branch_name'.
   ** Severe  ** <root>[Connector:Mixer][CW Demand Mixer][branches][86] - Missing required property 'inlet_branch_name'.
   ** Severe  ** <root>[Connector:Mixer][CW Demand Mixer][branches][87] - Missing required property 'inlet_branch_name'.
   ** Severe  ** <root>[Connector:Mixer][CW Demand Mixer][branches][88] - Missing required property 'inlet_branch_name'.
   ** Severe  ** <root>[Connector:Mixer][CW Demand Mixer][branches][89] - Missing required property 'inlet_branch_name'.
   ** Severe  ** <root>[Connector:Mixer][CW Demand Mixer][branches][90] - Missing required property 'inlet_branch_name'.
   ** Severe  ** <root>[Connector:Mixer][CW Demand Mixer][branches][91] - Missing required property 'inlet_branch_name'.
   ** Severe  ** <root>[Connector:Mixer][CW Demand Mixer][branches][92] - Missing required property 'inlet_branch_name'.
   ** Severe  ** <root>[Connector:Mixer][CW Demand Mixer][branches][93] - Missing required property 'inlet_branch_name'.
   ** Severe  ** <root>[Connector:Mixer][CW Demand Mixer][branches][94] - Missing required property 'inlet_branch_name'.
   ** Severe  ** <root>[Connector:Mixer][CW Demand Mixer][branches][95] - Missing required property 'inlet_branch_name'.
   ** Severe  ** <root>[Connector:Mixer][CW Demand Mixer][branches][96] - Missing required property 'inlet_branch_name'.
   ** Severe  ** <root>[Connector:Mixer][CW Demand Mixer][branches][97] - Missing required property 'inlet_branch_name'.
   ** Severe  ** <root>[Connector:Mixer][CW Demand Mixer][branches][98] - Missing required property 'inlet_branch_name'.
   ** Severe  ** <root>[Connector:Mixer][CW Demand Mixer][branches][99] - Missing required property 'inlet_branch_name'.
   ** Severe  ** <root>[Connector:Mixer][CW Demand Mixer][branches][100] - Missing required property 'inlet_branch_name'.
   ** Severe  ** <root>[Connector:Mixer][CW Demand Mixer][branches][101] - Missing required property 'inlet_branch_name'.
   ** Severe  ** <root>[Connector:Mixer][CW Demand Mixer][branches][102] - Missing required property 'inlet_branch_name'.
   ** Severe  ** <root>[Connector:Mixer][CW Demand Mixer][branches][103] - Missing required property 'inlet_branch_name'.
   ** Severe  ** <root>[Connector:Mixer][CW Demand Mixer][branches][104] - Missing required property 'inlet_branch_name'.
   ** Severe  ** <root>[Connector:Mixer][CW Demand Mixer][branches][105] - Missing required property 'inlet_branch_name'.
   ** Severe  ** <root>[Connector:Mixer][CW Demand Mixer][branches][106] - Missing required property 'inlet_branch_name'.
   ** Severe  ** <root>[Connector:Mixer][CW Demand Mixer][branches][107] - Missing required property 'inlet_branch_name'.
   ** Severe  ** <root>[Connector:Mixer][CW Demand Mixer][branches][108] - Missing required property 'inlet_branch_name'.
   ** Severe  ** <root>[Connector:Mixer][CW Demand Mixer][branches][109] - Missing required property 'inlet_branch_name'.
   ** Severe  ** <root>[Connector:Mixer][CW Demand Mixer][branches][110] - Missing required property 'inlet_branch_name'.
   ** Severe  ** <root>[Connector:Mixer][CW Demand Mixer][branches][111] - Missing required property 'inlet_branch_name'.
   ** Severe  ** <root>[Connector:Mixer][CW Demand Mixer][branches][112] - Missing required property 'inlet_branch_name'.
   ** Severe  ** <root>[Connector:Mixer][CW Demand Mixer][branches][113] - Missing required property 'inlet_branch_name'.
   ** Severe  ** <root>[Connector:Mixer][CW Demand Mixer][branches][114] - Missing required property 'inlet_branch_name'.
   ** Severe  ** <root>[Connector:Mixer][CW Demand Mixer][branches][115] - Missing required property 'inlet_branch_name'.
   ** Severe  ** <root>[Connector:Mixer][CW Demand Mixer][branches][116] - Missing required property 'inlet_branch_name'.
   ** Severe  ** <root>[Connector:Mixer][CW Demand Mixer][branches][117] - Missing required property 'inlet_branch_name'.
   ** Severe  ** <root>[Connector:Mixer][CW Demand Mixer][branches][118] - Missing required property 'inlet_branch_name'.
   ** Severe  ** <root>[Connector:Mixer][CW Demand Mixer][branches][119] - Missing required property 'inlet_branch_name'.
   ** Severe  ** <root>[Connector:Mixer][CW Demand Mixer][branches][120] - Missing required property 'inlet_branch_name'.
   ** Severe  ** <root>[Connector:Mixer][CW Demand Mixer][branches][121] - Missing required property 'inlet_branch_name'.
   ** Severe  ** <root>[Connector:Mixer][CW Demand Mixer][branches][122] - Missing required property 'inlet_branch_name'.
   ** Severe  ** <root>[Connector:Mixer][CW Demand Mixer][branches][123] - Missing required property 'inlet_branch_name'.
   ** Severe  ** <root>[Connector:Mixer][CW Demand Mixer][branches][124] - Missing required property 'inlet_branch_name'.
   ** Severe  ** <root>[Connector:Mixer][CW Demand Mixer][branches][125] - Missing required property 'inlet_branch_name'.
   ** Severe  ** <root>[Connector:Mixer][CW Demand Mixer][branches][126] - Missing required property 'inlet_branch_name'.
   ** Severe  ** <root>[Connector:Mixer][CW Demand Mixer][branches][127] - Missing required property 'inlet_branch_name'.
   ** Severe  ** <root>[Connector:Mixer][CW Demand Mixer][branches][128] - Missing required property 'inlet_branch_name'.
   ** Severe  ** <root>[Connector:Mixer][CW Demand Mixer][branches][129] - Missing required property 'inlet_branch_name'.
   ** Severe  ** <root>[Connector:Mixer][CW Demand Mixer][branches][130] - Missing required property 'inlet_branch_name'.
   ** Severe  ** <root>[Connector:Mixer][CW Demand Mixer][branches][131] - Missing required property 'inlet_branch_name'.
   ** Severe  ** <root>[Connector:Mixer][CW Demand Mixer][branches][132] - Missing required property 'inlet_branch_name'.
   ** Severe  ** <root>[Connector:Mixer][CW Demand Mixer][branches][133] - Missing required property 'inlet_branch_name'.
   ** Severe  ** <root>[Connector:Mixer][CW Demand Mixer][branches][134] - Missing required property 'inlet_branch_name'.
   ** Severe  ** <root>[Connector:Mixer][CW Demand Mixer][branches][135] - Missing required property 'inlet_branch_name'.
   ** Severe  ** <root>[Connector:Mixer][CW Demand Mixer][branches][136] - Missing required property 'inlet_branch_name'.
   ** Severe  ** <root>[Connector:Mixer][CW Demand Mixer][branches][137] - Missing required property 'inlet_branch_name'.
   ** Severe  ** <root>[Connector:Mixer][CW Demand Mixer][branches][138] - Missing required property 'inlet_branch_name'.
   ** Severe  ** <root>[Connector:Mixer][CW Demand Mixer][branches][139] - Missing required property 'inlet_branch_name'.
   ** Severe  ** <root>[Connector:Mixer][CW Demand Mixer][branches][140] - Missing required property 'inlet_branch_name'.
   ** Severe  ** <root>[Connector:Mixer][CW Demand Mixer][branches][141] - Missing required property 'inlet_branch_name'.
   ** Severe  ** <root>[Connector:Mixer][CW Demand Mixer][branches][142] - Missing required property 'inlet_branch_name'.
   ** Severe  ** <root>[Connector:Mixer][CW Demand Mixer][branches][143] - Missing required property 'inlet_branch_name'.
   ** Severe  ** <root>[Connector:Mixer][CW Demand Mixer][branches][144] - Missing required property 'inlet_branch_name'.
   ** Severe  ** <root>[Connector:Mixer][CW Demand Mixer][branches][145] - Missing required property 'inlet_branch_name'.
   ** Severe  ** <root>[Connector:Mixer][CW Demand Mixer][branches][146] - Missing required property 'inlet_branch_name'.
   ** Severe  ** <root>[Connector:Mixer][CW Demand Mixer][branches][147] - Missing required property 'inlet_branch_name'.
   ** Severe  ** <root>[Connector:Mixer][CW Demand Mixer][branches][148] - Missing required property 'inlet_branch_name'.
   ** Severe  ** <root>[Connector:Mixer][CW Demand Mixer][branches][149] - Missing required property 'inlet_branch_name'.
   ** Severe  ** <root>[Connector:Mixer][CW Demand Mixer][branches][150] - Missing required property 'inlet_branch_name'.
   ** Severe  ** <root>[Connector:Mixer][CW Demand Mixer][branches][151] - Missing required property 'inlet_branch_name'.
   ** Severe  ** <root>[Connector:Mixer][CW Demand Mixer][branches][152] - Missing required property 'inlet_branch_name'.
   ** Severe  ** <root>[Connector:Mixer][CW Demand Mixer][branches][153] - Missing required property 'inlet_branch_name'.
   ** Severe  ** <root>[Connector:Mixer][CW Demand Mixer][branches][154] - Missing required property 'inlet_branch_name'.
   ** Severe  ** <root>[Connector:Mixer][CW Demand Mixer][branches][155] - Missing required property 'inlet_branch_name'.
   ** Severe  ** <root>[Connector:Mixer][CW Demand Mixer][branches][156] - Missing required property 'inlet_branch_name'.
   ** Severe  ** <root>[Connector:Mixer][CW Demand Mixer][branches][157] - Missing required property 'inlet_branch_name'.
   ** Severe  ** <root>[Connector:Mixer][CW Demand Mixer][branches][158] - Missing required property 'inlet_branch_name'.
   ** Severe  ** <root>[Connector:Mixer][CW Demand Mixer][branches][159] - Missing required property 'inlet_branch_name'.
[...]
   ** Severe  ** <root>[GroundHeatExchanger:ResponseFactors][GLHE_Vertical Ground Heat Exchanger g-functions][g_functions][47] - Missing required property 'g_function_ln_t_ts_value'.
   ** Severe  ** <root>[GroundHeatExchanger:ResponseFactors][GLHE_Vertical Ground Heat Exchanger g-functions][g_functions][48] - Missing required property 'g_function_g_value'.
   ** Severe  ** <root>[GroundHeatExchanger:ResponseFactors][GLHE_Vertical Ground Heat Exchanger g-functions][g_functions][48] - Missing required property 'g_function_ln_t_ts_value'.
   ** Severe  ** <root>[GroundHeatExchanger:ResponseFactors][GLHE_Vertical Ground Heat Exchanger g-functions][g_functions][49] - Missing required property 'g_function_g_value'.
   ** Severe  ** <root>[GroundHeatExchanger:ResponseFactors][GLHE_Vertical Ground Heat Exchanger g-functions][g_functions][49] - Missing required property 'g_function_ln_t_ts_value'.
   ** Severe  ** <root>[GroundHeatExchanger:ResponseFactors][GLHE_Vertical Ground Heat Exchanger g-functions][g_functions][50] - Missing required property 'g_function_g_value'.
   ** Severe  ** <root>[GroundHeatExchanger:ResponseFactors][GLHE_Vertical Ground Heat Exchanger g-functions][g_functions][50] - Missing required property 'g_function_ln_t_ts_value'.
   ** Severe  ** <root>[GroundHeatExchanger:ResponseFactors][GLHE_Vertical Ground Heat Exchanger g-functions][g_functions][51] - Missing required property 'g_function_g_value'.
   ** Severe  ** <root>[GroundHeatExchanger:ResponseFactors][GLHE_Vertical Ground Heat Exchanger g-functions][g_functions][51] - Missing required property 'g_function_ln_t_ts_value'.
   ** Severe  ** <root>[GroundHeatExchanger:ResponseFactors][GLHE_Vertical Ground Heat Exchanger g-functions][g_functions][52] - Missing required property 'g_function_g_value'.
   ** Severe  ** <root>[GroundHeatExchanger:ResponseFactors][GLHE_Vertical Ground Heat Exchanger g-functions][g_functions][52] - Missing required property 'g_function_ln_t_ts_value'.
   ** Severe  ** <root>[GroundHeatExchanger:ResponseFactors][GLHE_Vertical Ground Heat Exchanger g-functions][g_functions][53] - Missing required property 'g_function_g_value'.
   ** Severe  ** <root>[GroundHeatExchanger:ResponseFactors][GLHE_Vertical Ground Heat Exchanger g-functions][g_functions][53] - Missing required property 'g_function_ln_t_ts_value'.
   ** Severe  ** <root>[GroundHeatExchanger:ResponseFactors][GLHE_Vertical Ground Heat Exchanger g-functions][g_functions][54] - Missing required property 'g_function_g_value'.
   ** Severe  ** <root>[GroundHeatExchanger:ResponseFactors][GLHE_Vertical Ground Heat Exchanger g-functions][g_functions][54] - Missing required property 'g_function_ln_t_ts_value'.
   ** Severe  ** <root>[GroundHeatExchanger:ResponseFactors][GLHE_Vertical Ground Heat Exchanger g-functions][g_functions][55] - Missing required property 'g_function_g_value'.
   ** Severe  ** <root>[GroundHeatExchanger:ResponseFactors][GLHE_Vertical Ground Heat Exchanger g-functions][g_functions][55] - Missing required property 'g_function_ln_t_ts_value'.
   ** Severe  ** <root>[GroundHeatExchanger:ResponseFactors][GLHE_Vertical Ground Heat Exchanger g-functions][g_functions][56] - Missing required property 'g_function_g_value'.
   ** Severe  ** <root>[GroundHeatExchanger:ResponseFactors][GLHE_Vertical Ground Heat Exchanger g-functions][g_functions][56] - Missing required property 'g_function_ln_t_ts_value'.
   ** Severe  ** <root>[GroundHeatExchanger:ResponseFactors][GLHE_Vertical Ground Heat Exchanger g-functions][g_functions][57] - Missing required property 'g_function_g_value'.
   ** Severe  ** <root>[GroundHeatExchanger:ResponseFactors][GLHE_Vertical Ground Heat Exchanger g-functions][g_functions][57] - Missing required property 'g_function_ln_t_ts_value'.
   ** Severe  ** <root>[GroundHeatExchanger:ResponseFactors][GLHE_Vertical Ground Heat Exchanger g-functions][g_functions][58] - Missing required property 'g_function_g_value'.
   ** Severe  ** <root>[GroundHeatExchanger:ResponseFactors][GLHE_Vertical Ground Heat Exchanger g-functions][g_functions][58] - Missing required property 'g_function_ln_t_ts_value'.
   ** Severe  ** <root>[GroundHeatExchanger:ResponseFactors][GLHE_Vertical Ground Heat Exchanger g-functions][g_functions][59] - Missing required property 'g_function_g_value'.
   ** Severe  ** <root>[GroundHeatExchanger:ResponseFactors][GLHE_Vertical Ground Heat Exchanger g-functions][g_functions][59] - Missing required property 'g_function_ln_t_ts_value'.
   ** Severe  ** <root>[GroundHeatExchanger:ResponseFactors][GLHE_Vertical Ground Heat Exchanger g-functions][g_functions][60] - Missing required property 'g_function_g_value'.
   ** Severe  ** <root>[GroundHeatExchanger:ResponseFactors][GLHE_Vertical Ground Heat Exchanger g-functions][g_functions][60] - Missing required property 'g_function_ln_t_ts_value'.
   ** Severe  ** <root>[GroundHeatExchanger:ResponseFactors][GLHE_Vertical Ground Heat Exchanger g-functions][g_functions][61] - Missing required property 'g_function_g_value'.
   ** Severe  ** <root>[GroundHeatExchanger:ResponseFactors][GLHE_Vertical Ground Heat Exchanger g-functions][g_functions][61] - Missing required property 'g_function_ln_t_ts_value'.
   ** Severe  ** <root>[GroundHeatExchanger:ResponseFactors][GLHE_Vertical Ground Heat Exchanger g-functions][g_functions][62] - Missing required property 'g_function_g_value'.
   ** Severe  ** <root>[GroundHeatExchanger:ResponseFactors][GLHE_Vertical Ground Heat Exchanger g-functions][g_functions][62] - Missing required property 'g_function_ln_t_ts_value'.
   ** Severe  ** <root>[GroundHeatExchanger:ResponseFactors][GLHE_Vertical Ground Heat Exchanger g-functions][g_functions][63] - Missing required property 'g_function_g_value'.
   ** Severe  ** <root>[GroundHeatExchanger:ResponseFactors][GLHE_Vertical Ground Heat Exchanger g-functions][g_functions][63] - Missing required property 'g_function_ln_t_ts_value'.
   ** Severe  ** <root>[GroundHeatExchanger:ResponseFactors][GLHE_Vertical Ground Heat Exchanger g-functions][g_functions][64] - Missing required property 'g_function_g_value'.
   ** Severe  ** <root>[GroundHeatExchanger:ResponseFactors][GLHE_Vertical Ground Heat Exchanger g-functions][g_functions][64] - Missing required property 'g_function_ln_t_ts_value'.
   ** Severe  ** <root>[GroundHeatExchanger:ResponseFactors][GLHE_Vertical Ground Heat Exchanger g-functions][g_functions][65] - Missing required property 'g_function_g_value'.
   ** Severe  ** <root>[GroundHeatExchanger:ResponseFactors][GLHE_Vertical Ground Heat Exchanger g-functions][g_functions][65] - Missing required property 'g_function_ln_t_ts_value'.
   ** Severe  ** <root>[GroundHeatExchanger:ResponseFactors][GLHE_Vertical Ground Heat Exchanger g-functions][g_functions][66] - Missing required property 'g_function_g_value'.
   ** Severe  ** <root>[GroundHeatExchanger:ResponseFactors][GLHE_Vertical Ground Heat Exchanger g-functions][g_functions][66] - Missing required property 'g_function_ln_t_ts_value'.
   ** Severe  ** <root>[GroundHeatExchanger:ResponseFactors][GLHE_Vertical Ground Heat Exchanger g-functions][g_functions][67] - Missing required property 'g_function_g_value'.
   ** Severe  ** <root>[GroundHeatExchanger:ResponseFactors][GLHE_Vertical Ground Heat Exchanger g-functions][g_functions][67] - Missing required property 'g_function_ln_t_ts_value'.
   ** Severe  ** <root>[GroundHeatExchanger:ResponseFactors][GLHE_Vertical Ground Heat Exchanger g-functions][g_functions][68] - Missing required property 'g_function_g_value'.
   ** Severe  ** <root>[GroundHeatExchanger:ResponseFactors][GLHE_Vertical Ground Heat Exchanger g-functions][g_functions][68] - Missing required property 'g_function_ln_t_ts_value'.
   ** Severe  ** <root>[GroundHeatExchanger:ResponseFactors][GLHE_Vertical Ground Heat Exchanger g-functions][g_functions][69] - Missing required property 'g_function_g_value'.
   ** Severe  ** <root>[GroundHeatExchanger:ResponseFactors][GLHE_Vertical Ground Heat Exchanger g-functions][g_functions][69] - Missing required property 'g_function_ln_t_ts_value'.
   ** Severe  ** <root>[GroundHeatExchanger:ResponseFactors][GLHE_Vertical Ground Heat Exchanger g-functions][g_functions][70] - Missing required property 'g_function_g_value'.
   ** Severe  ** <root>[GroundHeatExchanger:ResponseFactors][GLHE_Vertical Ground Heat Exchanger g-functions][g_functions][70] - Missing required property 'g_function_ln_t_ts_value'.
   ** Severe  ** <root>[GroundHeatExchanger:ResponseFactors][GLHE_Vertical Ground Heat Exchanger g-functions][g_functions][71] - Missing required property 'g_function_g_value'.
   ** Severe  ** <root>[GroundHeatExchanger:ResponseFactors][GLHE_Vertical Ground Heat Exchanger g-functions][g_functions][71] - Missing required property 'g_function_ln_t_ts_value'.
   ** Severe  ** <root>[GroundHeatExchanger:ResponseFactors][GLHE_Vertical Ground Heat Exchanger g-functions][g_functions][72] - Missing required property 'g_function_g_value'.
   ** Severe  ** <root>[GroundHeatExchanger:ResponseFactors][GLHE_Vertical Ground Heat Exchanger g-functions][g_functions][72] - Missing required property 'g_function_ln_t_ts_value'.
   ** Severe  ** <root>[GroundHeatExchanger:ResponseFactors][GLHE_Vertical Ground Heat Exchanger g-functions][g_functions][73] - Missing required property 'g_function_g_value'.
   ** Severe  ** <root>[GroundHeatExchanger:ResponseFactors][GLHE_Vertical Ground Heat Exchanger g-functions][g_functions][73] - Missing required property 'g_function_ln_t_ts_value'.
   ** Severe  ** <root>[GroundHeatExchanger:ResponseFactors][GLHE_Vertical Ground Heat Exchanger g-functions][g_functions][74] - Missing required property 'g_function_g_value'.
   ** Severe  ** <root>[GroundHeatExchanger:ResponseFactors][GLHE_Vertical Ground Heat Exchanger g-functions][g_functions][74] - Missing required property 'g_function_ln_t_ts_value'.
   ** Severe  ** <root>[GroundHeatExchanger:ResponseFactors][GLHE_Vertical Ground Heat Exchanger g-functions][g_functions][75] - Missing required property 'g_function_g_value'.
   ** Severe  ** <root>[GroundHeatExchanger:ResponseFactors][GLHE_Vertical Ground Heat Exchanger g-functions][g_functions][75] - Missing required property 'g_function_ln_t_ts_value'.
   ** Severe  ** <root>[GroundHeatExchanger:ResponseFactors][GLHE_Vertical Ground Heat Exchanger g-functions][g_functions][76] - Missing required property 'g_function_g_value'.
   ** Severe  ** <root>[GroundHeatExchanger:ResponseFactors][GLHE_Vertical Ground Heat Exchanger g-functions][g_functions][76] - Missing required property 'g_function_ln_t_ts_value'.
   ** Severe  ** <root>[GroundHeatExchanger:ResponseFactors][GLHE_Vertical Ground Heat Exchanger g-functions][g_functions][77] - Missing required property 'g_function_g_value'.
   ** Severe  ** <root>[GroundHeatExchanger:ResponseFactors][GLHE_Vertical Ground Heat Exchanger g-functions][g_functions][77] - Missing required property 'g_function_ln_t_ts_value'.
   ** Severe  ** <root>[GroundHeatExchanger:ResponseFactors][GLHE_Vertical Ground Heat Exchanger g-functions][g_functions][78] - Missing required property 'g_function_g_value'.
   ** Severe  ** <root>[GroundHeatExchanger:ResponseFactors][GLHE_Vertical Ground Heat Exchanger g-functions][g_functions][78] - Missing required property 'g_function_ln_t_ts_value'.
   ** Severe  ** <root>[GroundHeatExchanger:ResponseFactors][GLHE_Vertical Ground Heat Exchanger g-functions][g_functions][79] - Missing required property 'g_function_g_value'.
   ** Severe  ** <root>[GroundHeatExchanger:ResponseFactors][GLHE_Vertical Ground Heat Exchanger g-functions][g_functions][79] - Missing required property 'g_function_ln_t_ts_value'.
   ** Severe  ** <root>[GroundHeatExchanger:ResponseFactors][GLHE_Vertical Ground Heat Exchanger g-functions][g_functions][80] - Missing required property 'g_function_g_value'.
   ** Severe  ** <root>[GroundHeatExchanger:ResponseFactors][GLHE_Vertical Ground Heat Exchanger g-functions][g_functions][80] - Missing required property 'g_function_ln_t_ts_value'.
   ** Severe  ** <root>[GroundHeatExchanger:ResponseFactors][GLHE_Vertical Ground Heat Exchanger g-functions][g_functions][81] - Missing required property 'g_function_g_value'.
   ** Severe  ** <root>[GroundHeatExchanger:ResponseFactors][GLHE_Vertical Ground Heat Exchanger g-functions][g_functions][81] - Missing required property 'g_function_ln_t_ts_value'.
   ** Severe  ** <root>[GroundHeatExchanger:ResponseFactors][GLHE_Vertical Ground Heat Exchanger g-functions][g_functions][82] - Missing required property 'g_function_g_value'.
   ** Severe  ** <root>[GroundHeatExchanger:ResponseFactors][GLHE_Vertical Ground Heat Exchanger g-functions][g_functions][82] - Missing required property 'g_function_ln_t_ts_value'.
   ** Severe  ** <root>[GroundHeatExchanger:ResponseFactors][GLHE_Vertical Ground Heat Exchanger g-functions][g_functions][83] - Missing required property 'g_function_g_value'.
   ** Severe  ** <root>[GroundHeatExchanger:ResponseFactors][GLHE_Vertical Ground Heat Exchanger g-functions][g_functions][83] - Missing required property 'g_function_ln_t_ts_value'.
   ** Severe  ** <root>[GroundHeatExchanger:ResponseFactors][GLHE_Vertical Ground Heat Exchanger g-functions][g_functions][84] - Missing required property 'g_function_g_value'.
   ** Severe  ** <root>[GroundHeatExchanger:ResponseFactors][GLHE_Vertical Ground Heat Exchanger g-functions][g_functions][84] - Missing required property 'g_function_ln_t_ts_value'.
   ** Severe  ** <root>[GroundHeatExchanger:ResponseFactors][GLHE_Vertical Ground Heat Exchanger g-functions][g_functions][85] - Missing required property 'g_function_g_value'.
   ** Severe  ** <root>[GroundHeatExchanger:ResponseFactors][GLHE_Vertical Ground Heat Exchanger g-functions][g_functions][85] - Missing required property 'g_function_ln_t_ts_value'.
   ** Severe  ** <root>[GroundHeatExchanger:ResponseFactors][GLHE_Vertical Ground Heat Exchanger g-functions][g_functions][86] - Missing required property 'g_function_g_value'.
   ** Severe  ** <root>[GroundHeatExchanger:ResponseFactors][GLHE_Vertical Ground Heat Exchanger g-functions][g_functions][86] - Missing required property 'g_function_ln_t_ts_value'.
   ** Severe  ** <root>[GroundHeatExchanger:ResponseFactors][GLHE_Vertical Ground Heat Exchanger g-functions][g_functions][87] - Missing required property 'g_function_g_value'.
   ** Severe  ** <root>[GroundHeatExchanger:ResponseFactors][GLHE_Vertical Ground Heat Exchanger g-functions][g_functions][87] - Missing required property 'g_function_ln_t_ts_value'.
   ** Severe  ** <root>[GroundHeatExchanger:ResponseFactors][GLHE_Vertical Ground Heat Exchanger g-functions][g_functions][88] - Missing required property 'g_function_g_value'.
   ** Severe  ** <root>[GroundHeatExchanger:ResponseFactors][GLHE_Vertical Ground Heat Exchanger g-functions][g_functions][88] - Missing required property 'g_function_ln_t_ts_value'.
   ** Severe  ** <root>[GroundHeatExchanger:ResponseFactors][GLHE_Vertical Ground Heat Exchanger g-functions][g_functions][89] - Missing required property 'g_function_g_value'.
   ** Severe  ** <root>[GroundHeatExchanger:ResponseFactors][GLHE_Vertical Ground Heat Exchanger g-functions][g_functions][89] - Missing required property 'g_function_ln_t_ts_value'.
   ** Severe  ** <root>[GroundHeatExchanger:ResponseFactors][GLHE_Vertical Ground Heat Exchanger g-functions][g_functions][90] - Missing required property 'g_function_g_value'.
   ** Severe  ** <root>[GroundHeatExchanger:ResponseFactors][GLHE_Vertical Ground Heat Exchanger g-functions][g_functions][90] - Missing required property 'g_function_ln_t_ts_value'.
   ** Severe  ** <root>[GroundHeatExchanger:ResponseFactors][GLHE_Vertical Ground Heat Exchanger g-functions][g_functions][91] - Missing required property 'g_function_g_value'.
   ** Severe  ** <root>[GroundHeatExchanger:ResponseFactors][GLHE_Vertical Ground Heat Exchanger g-functions][g_functions][91] - Missing required property 'g_function_ln_t_ts_value'.
   ** Severe  ** <root>[GroundHeatExchanger:ResponseFactors][GLHE_Vertical Ground Heat Exchanger g-functions][g_functions][92] - Missing required property 'g_function_g_value'.
   ** Severe  ** <root>[GroundHeatExchanger:ResponseFactors][GLHE_Vertical Ground Heat Exchanger g-functions][g_functions][92] - Missing required property 'g_function_ln_t_ts_value'.
   ** Severe  ** <root>[GroundHeatExchanger:ResponseFactors][GLHE_Vertical Ground Heat Exchanger g-functions][g_functions][93] - Missing required property 'g_function_g_value'.
   ** Severe  ** <root>[GroundHeatExchanger:ResponseFactors][GLHE_Vertical Ground Heat Exchanger g-functions][g_functions][93] - Missing required property 'g_function_ln_t_ts_value'.
   ** Severe  ** <root>[GroundHeatExchanger:ResponseFactors][GLHE_Vertical Ground Heat Exchanger g-functions][g_functions][94] - Missing required property 'g_function_g_value'.
   ** Severe  ** <root>[GroundHeatExchanger:ResponseFactors][GLHE_Vertical Ground Heat Exchanger g-functions][g_functions][94] - Missing required property 'g_function_ln_t_ts_value'.
   ** Severe  ** <root>[GroundHeatExchanger:ResponseFactors][GLHE_Vertical Ground Heat Exchanger g-functions][g_functions][95] - Missing required property 'g_function_g_value'.
   ** Severe  ** <root>[GroundHeatExchanger:ResponseFactors][GLHE_Vertical Ground Heat Exchanger g-functions][g_functions][95] - Missing required property 'g_function_ln_t_ts_value'.
   ** Severe  ** <root>[GroundHeatExchanger:ResponseFactors][GLHE_Vertical Ground Heat Exchanger g-functions][g_functions][96] - Missing required property 'g_function_g_value'.
   ** Severe  ** <root>[GroundHeatExchanger:ResponseFactors][GLHE_Vertical Ground Heat Exchanger g-functions][g_functions][96] - Missing required property 'g_function_ln_t_ts_value'.
   ** Severe  ** <root>[GroundHeatExchanger:ResponseFactors][GLHE_Vertical Ground Heat Exchanger g-functions][g_functions][97] - Missing required property 'g_function_g_value'.
   ** Severe  ** <root>[GroundHeatExchanger:ResponseFactors][GLHE_Vertical Ground Heat Exchanger g-functions][g_functions][97] - Missing required property 'g_function_ln_t_ts_value'.
   ** Severe  ** <root>[GroundHeatExchanger:ResponseFactors][GLHE_Vertical Ground Heat Exchanger g-functions][g_functions][98] - Missing required property 'g_function_g_value'.
   ** Severe  ** <root>[GroundHeatExchanger:ResponseFactors][GLHE_Vertical Ground Heat Exchanger g-functions][g_functions][98] - Missing required property 'g_function_ln_t_ts_value'.
   ** Severe  ** <root>[GroundHeatExchanger:ResponseFactors][GLHE_Vertical Ground Heat Exchanger g-functions][g_functions][99] - Missing required property 'g_function_g_value'.
   ** Severe  ** <root>[GroundHeatExchanger:ResponseFactors][GLHE_Vertical Ground Heat Exchanger g-functions][g_functions][99] - Missing required property 'g_function_ln_t_ts_value'.
   **  Fatal  ** Errors occurred on processing input file. Preceding condition(s) cause termination.
   ...Summary of Errors that led to program termination:
   ..... Reference severe error count=1661
   ..... Last severe error=<root>[GroundHeatExchanger:ResponseFactors][GLHE_Vertical Ground Heat Exchanger g-functions][g_functions][99] - Missing required property 'g_function_ln_t_ts_value'.
   ************* Warning:  Node connection errors not checked - most system input has not been read (see previous warning).
   ************* Fatal error -- final processing.  Program exited before simulations began.  See previous error messages.
   ************* EnergyPlus Warmup Error Summary. During Warmup: 0 Warning; 0 Severe Errors.
   ************* EnergyPlus Sizing Error Summary. During Sizing: 0 Warning; 0 Severe Errors.
   ************* EnergyPlus Terminated--Fatal Error Detected. 0 Warning; 1661 Severe Errors; Elapsed Time=00hr 00min  0.28sec
